
OS:Version,
  {9020ae74-8261-4386-b85b-652668ec4716}, !- Handle
  2.9.1;                                  !- Version Identifier

OS:Site,
  {55090ce6-56d9-42fd-b295-25743e812253}, !- Handle
  Temixco,                                !- Name
  18.85,                                  !- Latitude {deg}
  -99.14,                                 !- Longitude {deg}
  -6,                                     !- Time Zone {hr}
  1280,                                   !- Elevation {m}
  ;                                       !- Terrain

OS:SimulationControl,
  {44b2fb5e-875b-4d47-951e-aa69251a4f1b}, !- Handle
  No,                                     !- Do Zone Sizing Calculation
  No,                                     !- Do System Sizing Calculation
  No,                                     !- Do Plant Sizing Calculation
  No,                                     !- Run Simulation for Sizing Periods
  Yes,                                    !- Run Simulation for Weather File Run Periods
  ,                                       !- Loads Convergence Tolerance Value
  ,                                       !- Temperature Convergence Tolerance Value {deltaC}
  ,                                       !- Solar Distribution
  ,                                       !- Maximum Number of Warmup Days
  20;                                     !- Minimum Number of Warmup Days

OS:Timestep,
  {9d5630f6-7b42-456e-9dd1-52032e43e20f}, !- Handle
  60;                                     !- Number of Timesteps per Hour

OS:Building,
  {ecda041e-2075-48a2-a620-4876032c46aa}, !- Handle
  Building 1,                             !- Name
  ,                                       !- Building Sector Type
  ,                                       !- North Axis {deg}
  ,                                       !- Nominal Floor to Floor Height {m}
  ,                                       !- Space Type Name
  ,                                       !- Default Construction Set Name
  ,                                       !- Default Schedule Set Name
  ,                                       !- Standards Number of Stories
  ,                                       !- Standards Number of Above Ground Stories
  ,                                       !- Standards Template
  ,                                       !- Standards Building Type
  ,                                       !- Standards Number of Living Units
  ,                                       !- Relocatable
  ;                                       !- Nominal Floor to Ceiling Height {m}

OS:ThermalZone,
  {622c997c-3ee1-4f3c-b897-945c8d24f357}, !- Handle
  Thermal Zone 1 Thermal Zone Thermal Zone, !- Name
  ,                                       !- Multiplier
  ,                                       !- Ceiling Height {m}
  ,                                       !- Volume {m3}
  ,                                       !- Floor Area {m2}
  ,                                       !- Zone Inside Convection Algorithm
  ,                                       !- Zone Outside Convection Algorithm
  ,                                       !- Zone Conditioning Equipment List Name
  {bc31ca29-81f3-4b5e-a523-7ec62a00cdb4}, !- Zone Air Inlet Port List
  {838d9718-27bd-4480-a364-daea0c34fa78}, !- Zone Air Exhaust Port List
  {7c5a7590-33da-4133-9734-b5a4a89cb68f}, !- Zone Air Node Name
  {a92acfde-f397-4c9f-bb42-b3ee7da6648f}, !- Zone Return Air Port List
  ,                                       !- Primary Daylighting Control Name
  ,                                       !- Fraction of Zone Controlled by Primary Daylighting Control
  ,                                       !- Secondary Daylighting Control Name
  ,                                       !- Fraction of Zone Controlled by Secondary Daylighting Control
  ,                                       !- Illuminance Map Name
  {6cf83a3e-e7ad-46c4-a114-eb1afd626ee8}, !- Group Rendering Name
  ,                                       !- Thermostat Name
  No;                                     !- Use Ideal Air Loads

OS:Node,
  {ef5667e8-f1c8-4d98-8970-17f109b86101}, !- Handle
  {3c79b4f9-117e-4078-9161-49fcb912568e}, !- Name
  {7c5a7590-33da-4133-9734-b5a4a89cb68f}, !- Inlet Port
  ;                                       !- Outlet Port

OS:Connection,
  {7c5a7590-33da-4133-9734-b5a4a89cb68f}, !- Handle
  {a4cb3869-f3a0-41d0-b9f5-f5be79050bbd}, !- Name
  {622c997c-3ee1-4f3c-b897-945c8d24f357}, !- Source Object
  11,                                     !- Outlet Port
  {ef5667e8-f1c8-4d98-8970-17f109b86101}, !- Target Object
  2;                                      !- Inlet Port

OS:PortList,
  {bc31ca29-81f3-4b5e-a523-7ec62a00cdb4}, !- Handle
  {c56042d8-d04b-4951-8367-266a67e90ec3}, !- Name
  {622c997c-3ee1-4f3c-b897-945c8d24f357}; !- HVAC Component

OS:PortList,
  {838d9718-27bd-4480-a364-daea0c34fa78}, !- Handle
  {b1098d0e-91f4-4d01-8cc9-2f892e0f3b14}, !- Name
  {622c997c-3ee1-4f3c-b897-945c8d24f357}; !- HVAC Component

OS:PortList,
  {a92acfde-f397-4c9f-bb42-b3ee7da6648f}, !- Handle
  {8f13a64b-1995-48be-8cbf-b0f64285d0b1}, !- Name
  {622c997c-3ee1-4f3c-b897-945c8d24f357}; !- HVAC Component

OS:Sizing:Zone,
  {5b2ca764-7b07-4cd8-9ae8-d13005f56450}, !- Handle
  {622c997c-3ee1-4f3c-b897-945c8d24f357}, !- Zone or ZoneList Name
  SupplyAirTemperature,                   !- Zone Cooling Design Supply Air Temperature Input Method
  14,                                     !- Zone Cooling Design Supply Air Temperature {C}
  11.11,                                  !- Zone Cooling Design Supply Air Temperature Difference {deltaC}
  SupplyAirTemperature,                   !- Zone Heating Design Supply Air Temperature Input Method
  40,                                     !- Zone Heating Design Supply Air Temperature {C}
  11.11,                                  !- Zone Heating Design Supply Air Temperature Difference {deltaC}
  0.0085,                                 !- Zone Cooling Design Supply Air Humidity Ratio {kg-H2O/kg-air}
  0.008,                                  !- Zone Heating Design Supply Air Humidity Ratio {kg-H2O/kg-air}
  ,                                       !- Zone Heating Sizing Factor
  ,                                       !- Zone Cooling Sizing Factor
  DesignDay,                              !- Cooling Design Air Flow Method
  ,                                       !- Cooling Design Air Flow Rate {m3/s}
  ,                                       !- Cooling Minimum Air Flow per Zone Floor Area {m3/s-m2}
  ,                                       !- Cooling Minimum Air Flow {m3/s}
  ,                                       !- Cooling Minimum Air Flow Fraction
  DesignDay,                              !- Heating Design Air Flow Method
  ,                                       !- Heating Design Air Flow Rate {m3/s}
  ,                                       !- Heating Maximum Air Flow per Zone Floor Area {m3/s-m2}
  ,                                       !- Heating Maximum Air Flow {m3/s}
  ,                                       !- Heating Maximum Air Flow Fraction
  ,                                       !- Design Zone Air Distribution Effectiveness in Cooling Mode
  ,                                       !- Design Zone Air Distribution Effectiveness in Heating Mode
  No,                                     !- Account for Dedicated Outdoor Air System
  NeutralSupplyAir,                       !- Dedicated Outdoor Air System Control Strategy
  autosize,                               !- Dedicated Outdoor Air Low Setpoint Temperature for Design {C}
  autosize;                               !- Dedicated Outdoor Air High Setpoint Temperature for Design {C}

OS:ZoneHVAC:EquipmentList,
  {d3ae71ee-eaa8-431a-939b-4cfc3752bfce}, !- Handle
  {83d02933-8e43-41ac-b005-e27d0d94de2f}, !- Name
  {622c997c-3ee1-4f3c-b897-945c8d24f357}; !- Thermal Zone

OS:Space,
  {c36cac2e-0ebe-420c-8bbb-ccb94c6d203a}, !- Handle
  Thermal Zone 1 Thermal Zone,            !- Name
  ,                                       !- Space Type Name
  ,                                       !- Default Construction Set Name
  ,                                       !- Default Schedule Set Name
  -0,                                     !- Direction of Relative North {deg}
  4.2990511072413,                        !- X Origin {m}
  0,                                      !- Y Origin {m}
  0,                                      !- Z Origin {m}
  ,                                       !- Building Story Name
  {622c997c-3ee1-4f3c-b897-945c8d24f357}; !- Thermal Zone Name

OS:Surface,
  {bd1f0d6a-5445-4c22-b323-928c792343a9}, !- Handle
  Surface 1,                              !- Name
  Floor,                                  !- Surface Type
  {be51ac79-a0ab-4ed0-850d-ffe40ee7a900}, !- Construction Name
  {c36cac2e-0ebe-420c-8bbb-ccb94c6d203a}, !- Space Name
  Adiabatic,                              !- Outside Boundary Condition
  ,                                       !- Outside Boundary Condition Object
  NoSun,                                  !- Sun Exposure
  NoWind,                                 !- Wind Exposure
  ,                                       !- View Factor to Ground
  ,                                       !- Number of Vertices
  -0.189999999999997, 1.86, 0,            !- X,Y,Z Vertex 1 {m}
  -0.189999999999997, 0, 0,               !- X,Y,Z Vertex 2 {m}
  -1.95, 0, 0,                            !- X,Y,Z Vertex 3 {m}
  -1.95, 1.86, 0;                         !- X,Y,Z Vertex 4 {m}

OS:Construction,
  {be51ac79-a0ab-4ed0-850d-ffe40ee7a900}, !- Handle
  Lamina,                                 !- Name
  {4ee2434f-fd7e-45c5-ba64-c8649a6bf04e}, !- Surface Rendering Name
  {5b9469e4-87e5-4fc6-95de-fc69359b629f}; !- Layer 1

OS:Material:NoMass,
  {5b9469e4-87e5-4fc6-95de-fc69359b629f}, !- Handle
  Lamina,                                 !- Name
  Smooth,                                 !- Roughness
  0.001,                                  !- Thermal Resistance {m2-K/W}
  1e-007,                                 !- Thermal Absorptance
  0.7,                                    !- Solar Absorptance
  0.7;                                    !- Visible Absorptance

OS:Surface,
  {4b3f0536-b8a9-4e04-809a-e86991b19ce5}, !- Handle
  Surface 2,                              !- Name
  Wall,                                   !- Surface Type
  {b44c887e-05a7-42bc-9c79-83d48e0a3167}, !- Construction Name
  {c36cac2e-0ebe-420c-8bbb-ccb94c6d203a}, !- Space Name
  Outdoors,                               !- Outside Boundary Condition
  ,                                       !- Outside Boundary Condition Object
  SunExposed,                             !- Sun Exposure
  WindExposed,                            !- Wind Exposure
  ,                                       !- View Factor to Ground
  ,                                       !- Number of Vertices
  -1.95, 0, 2.6,                          !- X,Y,Z Vertex 1 {m}
  -1.95, 0, 0,                            !- X,Y,Z Vertex 2 {m}
  -0.189999999999997, 0, 0,               !- X,Y,Z Vertex 3 {m}
  -0.189999999999997, 0, 2.6;             !- X,Y,Z Vertex 4 {m}

OS:Construction,
  {b44c887e-05a7-42bc-9c79-83d48e0a3167}, !- Handle
  EPS,                                    !- Name
  {54688335-c149-410c-a47a-f3c220be7519}, !- Surface Rendering Name
  {7d104b58-642f-4364-baad-2a29cdebce44}; !- Layer 1

OS:Material,
  {7d104b58-642f-4364-baad-2a29cdebce44}, !- Handle
  EPS,                                    !- Name
  Smooth,                                 !- Roughness
  0.11,                                   !- Thickness {m}
  0.035,                                  !- Conductivity {W/m-K}
  25,                                     !- Density {kg/m3}
  1400,                                   !- Specific Heat {J/kg-K}
  1e-006,                                 !- Thermal Absorptance
  0.3,                                    !- Solar Absorptance
  0.3;                                    !- Visible Absorptance

OS:Surface,
  {0c4a9871-c7ce-401f-ab2f-158531c2518a}, !- Handle
  Surface 3,                              !- Name
  Wall,                                   !- Surface Type
  {be51ac79-a0ab-4ed0-850d-ffe40ee7a900}, !- Construction Name
  {c36cac2e-0ebe-420c-8bbb-ccb94c6d203a}, !- Space Name
  Adiabatic,                              !- Outside Boundary Condition
  ,                                       !- Outside Boundary Condition Object
  NoSun,                                  !- Sun Exposure
  NoWind,                                 !- Wind Exposure
  ,                                       !- View Factor to Ground
  ,                                       !- Number of Vertices
  -1.95, 1.86, 2.6,                       !- X,Y,Z Vertex 1 {m}
  -1.95, 1.86, 0,                         !- X,Y,Z Vertex 2 {m}
  -1.95, 0, 0,                            !- X,Y,Z Vertex 3 {m}
  -1.95, 0, 2.6;                          !- X,Y,Z Vertex 4 {m}

OS:Surface,
  {e0dcabc8-bf9e-44b9-85ae-ce58e328ee93}, !- Handle
  Surface 4,                              !- Name
  Wall,                                   !- Surface Type
  {be51ac79-a0ab-4ed0-850d-ffe40ee7a900}, !- Construction Name
  {c36cac2e-0ebe-420c-8bbb-ccb94c6d203a}, !- Space Name
  Adiabatic,                              !- Outside Boundary Condition
  ,                                       !- Outside Boundary Condition Object
  NoSun,                                  !- Sun Exposure
  NoWind,                                 !- Wind Exposure
  ,                                       !- View Factor to Ground
  ,                                       !- Number of Vertices
  -0.189999999999997, 1.86, 2.6,          !- X,Y,Z Vertex 1 {m}
  -0.189999999999997, 1.86, 0,            !- X,Y,Z Vertex 2 {m}
  -1.95, 1.86, 0,                         !- X,Y,Z Vertex 3 {m}
  -1.95, 1.86, 2.6;                       !- X,Y,Z Vertex 4 {m}

OS:Surface,
  {653ab316-7cbd-4691-a2f2-21174b01f32e}, !- Handle
  Surface 5,                              !- Name
  Wall,                                   !- Surface Type
  {be51ac79-a0ab-4ed0-850d-ffe40ee7a900}, !- Construction Name
  {c36cac2e-0ebe-420c-8bbb-ccb94c6d203a}, !- Space Name
  Adiabatic,                              !- Outside Boundary Condition
  ,                                       !- Outside Boundary Condition Object
  NoSun,                                  !- Sun Exposure
  NoWind,                                 !- Wind Exposure
  ,                                       !- View Factor to Ground
  ,                                       !- Number of Vertices
  -0.189999999999997, 0, 2.6,             !- X,Y,Z Vertex 1 {m}
  -0.189999999999997, 0, 0,               !- X,Y,Z Vertex 2 {m}
  -0.189999999999997, 1.86, 0,            !- X,Y,Z Vertex 3 {m}
  -0.189999999999997, 1.86, 2.6;          !- X,Y,Z Vertex 4 {m}

OS:Surface,
  {49279ef9-4d57-4c19-a34c-e5bcdf6d4f97}, !- Handle
  Surface 6,                              !- Name
  RoofCeiling,                            !- Surface Type
  {be51ac79-a0ab-4ed0-850d-ffe40ee7a900}, !- Construction Name
  {c36cac2e-0ebe-420c-8bbb-ccb94c6d203a}, !- Space Name
  Adiabatic,                              !- Outside Boundary Condition
  ,                                       !- Outside Boundary Condition Object
  NoSun,                                  !- Sun Exposure
  NoWind,                                 !- Wind Exposure
  ,                                       !- View Factor to Ground
  ,                                       !- Number of Vertices
  -0.189999999999997, 0, 2.6,             !- X,Y,Z Vertex 1 {m}
  -0.189999999999997, 1.86, 2.6,          !- X,Y,Z Vertex 2 {m}
  -1.95, 1.86, 2.6,                       !- X,Y,Z Vertex 3 {m}
  -1.95, 0, 2.6;                          !- X,Y,Z Vertex 4 {m}

OS:HeatBalanceAlgorithm,
  {c620184a-03bd-4d83-bd4b-37cf6e6369f1}, !- Handle
  ConductionTransferFunction,             !- Algorithm
  200;                                    !- Surface Temperature Upper Limit {C}

OS:RunPeriod,
  {2bf4639b-7f0f-4602-9756-4e04b14908d5}, !- Handle
  Run Period 1,                           !- Name
  1,                                      !- Begin Month
  25,                                     !- Begin Day of Month
  2,                                      !- End Month
  1,                                      !- End Day of Month
  No,                                     !- Use Weather File Holidays and Special Days
  No,                                     !- Use Weather File Daylight Saving Period
  No,                                     !- Apply Weekend Holiday Rule
  Yes,                                    !- Use Weather File Rain Indicators
  Yes,                                    !- Use Weather File Snow Indicators
  ;                                       !- Number of Times Runperiod to be Repeated

OS:YearDescription,
  {79e9eb62-c251-487d-badb-d3433c74e318}, !- Handle
  2006,                                   !- Calendar Year
  ,                                       !- Day of Week for Start Day
  ;                                       !- Is Leap Year

OS:ShadowCalculation,
  {15ffe71c-e394-42d3-a4c5-39e6b59f435f}, !- Handle
  20,                                     !- Calculation Frequency
  15000,                                  !- Maximum Figures in Shadow Overlap Calculations
  SutherlandHodgman,                      !- Polygon Clipping Algorithm
  SimpleSkyDiffuseModeling,               !- Sky Diffuse Modeling Algorithm
  AverageOverDaysInFrequency;             !- Calculation Method

OS:Sizing:Parameters,
  {fdff60cd-442e-43e2-99de-62853bcea57f}, !- Handle
  1.25,                                   !- Heating Sizing Factor
  1.15;                                   !- Cooling Sizing Factor

OS:Material:AirGap,
  {524b8439-6088-42a0-8b1c-5335cb81772e}, !- Handle
  F04 Wall air space resistance,          !- Name
  0.15;                                   !- Thermal Resistance {m2-K/W}

OS:Material:AirGap,
  {22bd9050-e5fb-4dac-b297-3f03c5089331}, !- Handle
  F05 Ceiling air space resistance,       !- Name
  0.18;                                   !- Thermal Resistance {m2-K/W}

OS:WindowMaterial:Glazing,
  {38d78d6a-0faf-450c-b5a9-d825742023a9}, !- Handle
  Clear 3mm,                              !- Name
  Spectral,                               !- Optical Data Type
  ,                                       !- Window Glass Spectral Data Set Name
  0.00299999999999999,                    !- Thickness {m}
  ,                                       !- Solar Transmittance at Normal Incidence
  ,                                       !- Front Side Solar Reflectance at Normal Incidence
  ,                                       !- Back Side Solar Reflectance at Normal Incidence
  ,                                       !- Visible Transmittance at Normal Incidence
  ,                                       !- Front Side Visible Reflectance at Normal Incidence
  ,                                       !- Back Side Visible Reflectance at Normal Incidence
  0,                                      !- Infrared Transmittance at Normal Incidence
  0.84,                                   !- Front Side Infrared Hemispherical Emissivity
  0.84,                                   !- Back Side Infrared Hemispherical Emissivity
  0.9,                                    !- Conductivity {W/m-K}
  1,                                      !- Dirt Correction Factor for Solar and Visible Transmittance
  No;                                     !- Solar Diffusing

OS:WindowMaterial:Glazing,
  {b88ae0d6-f78d-4062-b3d6-25eccfef215b}, !- Handle
  Theoretical Glass [167],                !- Name
  Spectral,                               !- Optical Data Type
  ,                                       !- Window Glass Spectral Data Set Name
  0.00299999999999999,                    !- Thickness {m}
  ,                                       !- Solar Transmittance at Normal Incidence
  ,                                       !- Front Side Solar Reflectance at Normal Incidence
  ,                                       !- Back Side Solar Reflectance at Normal Incidence
  ,                                       !- Visible Transmittance at Normal Incidence
  ,                                       !- Front Side Visible Reflectance at Normal Incidence
  ,                                       !- Back Side Visible Reflectance at Normal Incidence
  0,                                      !- Infrared Transmittance at Normal Incidence
  0.985,                                  !- Front Side Infrared Hemispherical Emissivity
  0.985,                                  !- Back Side Infrared Hemispherical Emissivity
  2.1073,                                 !- Conductivity {W/m-K}
  1,                                      !- Dirt Correction Factor for Solar and Visible Transmittance
  No;                                     !- Solar Diffusing

OS:WindowMaterial:Glazing,
  {b9016892-c12d-444c-801f-cb77da965f0f}, !- Handle
  Theoretical Glass [197],                !- Name
  Spectral,                               !- Optical Data Type
  ,                                       !- Window Glass Spectral Data Set Name
  0.00299999999999999,                    !- Thickness {m}
  ,                                       !- Solar Transmittance at Normal Incidence
  ,                                       !- Front Side Solar Reflectance at Normal Incidence
  ,                                       !- Back Side Solar Reflectance at Normal Incidence
  ,                                       !- Visible Transmittance at Normal Incidence
  ,                                       !- Front Side Visible Reflectance at Normal Incidence
  ,                                       !- Back Side Visible Reflectance at Normal Incidence
  0,                                      !- Infrared Transmittance at Normal Incidence
  0.9,                                    !- Front Side Infrared Hemispherical Emissivity
  0.9,                                    !- Back Side Infrared Hemispherical Emissivity
  0.0415,                                 !- Conductivity {W/m-K}
  1,                                      !- Dirt Correction Factor for Solar and Visible Transmittance
  No;                                     !- Solar Diffusing

OS:WindowMaterial:Glazing,
  {b8be62d0-7acc-4710-a3d3-b148c90ca612}, !- Handle
  Theoretical Glass [202],                !- Name
  Spectral,                               !- Optical Data Type
  ,                                       !- Window Glass Spectral Data Set Name
  0.00299999999999999,                    !- Thickness {m}
  ,                                       !- Solar Transmittance at Normal Incidence
  ,                                       !- Front Side Solar Reflectance at Normal Incidence
  ,                                       !- Back Side Solar Reflectance at Normal Incidence
  ,                                       !- Visible Transmittance at Normal Incidence
  ,                                       !- Front Side Visible Reflectance at Normal Incidence
  ,                                       !- Back Side Visible Reflectance at Normal Incidence
  0,                                      !- Infrared Transmittance at Normal Incidence
  0.9,                                    !- Front Side Infrared Hemispherical Emissivity
  0.9,                                    !- Back Side Infrared Hemispherical Emissivity
  0.0192,                                 !- Conductivity {W/m-K}
  1,                                      !- Dirt Correction Factor for Solar and Visible Transmittance
  No;                                     !- Solar Diffusing

OS:WindowMaterial:Glazing,
  {0e6f478e-79de-4ab6-ba50-d3c5a04c15a3}, !- Handle
  Theoretical Glass [207],                !- Name
  Spectral,                               !- Optical Data Type
  ,                                       !- Window Glass Spectral Data Set Name
  0.00299999999999999,                    !- Thickness {m}
  ,                                       !- Solar Transmittance at Normal Incidence
  ,                                       !- Front Side Solar Reflectance at Normal Incidence
  ,                                       !- Back Side Solar Reflectance at Normal Incidence
  ,                                       !- Visible Transmittance at Normal Incidence
  ,                                       !- Front Side Visible Reflectance at Normal Incidence
  ,                                       !- Back Side Visible Reflectance at Normal Incidence
  0,                                      !- Infrared Transmittance at Normal Incidence
  0.9,                                    !- Front Side Infrared Hemispherical Emissivity
  0.9,                                    !- Back Side Infrared Hemispherical Emissivity
  0.0133,                                 !- Conductivity {W/m-K}
  1,                                      !- Dirt Correction Factor for Solar and Visible Transmittance
  No;                                     !- Solar Diffusing

OS:WindowMaterial:Glazing,
  {0a8c87ac-bbf7-4601-8d57-027db0345dad}, !- Handle
  Theoretical Glass [216],                !- Name
  Spectral,                               !- Optical Data Type
  ,                                       !- Window Glass Spectral Data Set Name
  0.00299999999999999,                    !- Thickness {m}
  ,                                       !- Solar Transmittance at Normal Incidence
  ,                                       !- Front Side Solar Reflectance at Normal Incidence
  ,                                       !- Back Side Solar Reflectance at Normal Incidence
  ,                                       !- Visible Transmittance at Normal Incidence
  ,                                       !- Front Side Visible Reflectance at Normal Incidence
  ,                                       !- Back Side Visible Reflectance at Normal Incidence
  0,                                      !- Infrared Transmittance at Normal Incidence
  0.9,                                    !- Front Side Infrared Hemispherical Emissivity
  0.9,                                    !- Back Side Infrared Hemispherical Emissivity
  0.0133,                                 !- Conductivity {W/m-K}
  1,                                      !- Dirt Correction Factor for Solar and Visible Transmittance
  No;                                     !- Solar Diffusing

OS:WindowMaterial:Glazing,
  {dbb9cebb-a896-4517-91c6-9b95e0e19edf}, !- Handle
  Theoretical Glass [221],                !- Name
  Spectral,                               !- Optical Data Type
  ,                                       !- Window Glass Spectral Data Set Name
  0.00299999999999999,                    !- Thickness {m}
  ,                                       !- Solar Transmittance at Normal Incidence
  ,                                       !- Front Side Solar Reflectance at Normal Incidence
  ,                                       !- Back Side Solar Reflectance at Normal Incidence
  ,                                       !- Visible Transmittance at Normal Incidence
  ,                                       !- Front Side Visible Reflectance at Normal Incidence
  ,                                       !- Back Side Visible Reflectance at Normal Incidence
  0,                                      !- Infrared Transmittance at Normal Incidence
  0.9,                                    !- Front Side Infrared Hemispherical Emissivity
  0.9,                                    !- Back Side Infrared Hemispherical Emissivity
  0.0089,                                 !- Conductivity {W/m-K}
  1,                                      !- Dirt Correction Factor for Solar and Visible Transmittance
  No;                                     !- Solar Diffusing

OS:WindowProperty:FrameAndDivider,
  {a9768696-497d-41cb-803f-6d76795d5125}, !- Handle
  Window Property Frame And Divider 1,    !- Name
  0.05081016,                             !- Frame Width {m}
  0.05081016,                             !- Frame Outside Projection {m}
  0.05081016,                             !- Frame Inside Projection {m}
  ,                                       !- Frame Conductance {W/m2-K}
  1,                                      !- Ratio of Frame-Edge Glass Conductance to Center-Of-Glass Conductance
  0.7,                                    !- Frame Solar Absorptance
  0.7,                                    !- Frame Visible Absorptance
  0.9,                                    !- Frame Thermal Hemispherical Emissivity
  DividedLite,                            !- Divider Type
  0,                                      !- Divider Width {m}
  0,                                      !- Number of Horizontal Dividers
  0,                                      !- Number of Vertical Dividers
  0,                                      !- Divider Outside Projection {m}
  0,                                      !- Divider Inside Projection {m}
  0,                                      !- Divider Conductance {W/m2-K}
  1,                                      !- Ratio of Divider-Edge Glass Conductance to Center-Of-Glass Conductance
  0,                                      !- Divider Solar Absorptance
  0,                                      !- Divider Visible Absorptance
  0.9,                                    !- Divider Thermal Hemispherical Emissivity
  ,                                       !- Outside Reveal Depth {m}
  0,                                      !- Outside Reveal Solar Absorptance
  0,                                      !- Inside Sill Depth {m}
  0,                                      !- Inside Sill Solar Absorptance
  0,                                      !- Inside Reveal Depth {m}
  0;                                      !- Inside Reveal Solar Absorptance

OS:ScheduleTypeLimits,
  {fa46a76e-0dd7-4ded-b61e-e1e079151459}, !- Handle
  ActivityLevel,                          !- Name