
OS:Version,
  {7b5ca236-b0e3-4f54-a366-44189a92c5a6}, !- Handle
  2.9.1;                                  !- Version Identifier

OS:Site,
  {23b50937-e088-4e0b-8f83-146fc9827961}, !- Handle
  Temixco,                                !- Name
  18.85,                                  !- Latitude {deg}
  -99.14,                                 !- Longitude {deg}
  -6,                                     !- Time Zone {hr}
  1280,                                   !- Elevation {m}
  ;                                       !- Terrain

OS:SimulationControl,
  {a3c83f37-2594-47ad-92a5-7a11f1a8720c}, !- Handle
  No,                                     !- Do Zone Sizing Calculation
  No,                                     !- Do System Sizing Calculation
  No,                                     !- Do Plant Sizing Calculation
  No,                                     !- Run Simulation for Sizing Periods
  Yes,                                    !- Run Simulation for Weather File Run Periods
  ,                                       !- Loads Convergence Tolerance Value
  ,                                       !- Temperature Convergence Tolerance Value {deltaC}
  ,                                       !- Solar Distribution
  ,                                       !- Maximum Number of Warmup Days
  20;                                     !- Minimum Number of Warmup Days

OS:Building,
  {cb45c742-8073-427a-ba25-5ce624ce4878}, !- Handle
  Building 1,                             !- Name
  ,                                       !- Building Sector Type
  ,                                       !- North Axis {deg}
  ,                                       !- Nominal Floor to Floor Height {m}
  ,                                       !- Space Type Name
  ,                                       !- Default Construction Set Name
  ,                                       !- Default Schedule Set Name
  ,                                       !- Standards Number of Stories
  ,                                       !- Standards Number of Above Ground Stories
  ,                                       !- Standards Template
  ,                                       !- Standards Building Type
  ,                                       !- Standards Number of Living Units
  ,                                       !- Relocatable
  ;                                       !- Nominal Floor to Ceiling Height {m}

OS:ShadowCalculation,
  {17b0f83b-c763-4ebd-ba38-764364a51f17}, !- Handle
  20,                                     !- Calculation Frequency
  15000;                                  !- Maximum Figures in Shadow Overlap Calculations

OS:HeatBalanceAlgorithm,
  {0136f207-205e-4de4-aecb-7ff737b87168}, !- Handle
  ConductionTransferFunction,             !- Algorithm
  200;                                    !- Surface Temperature Upper Limit {C}

OS:Timestep,
  {b47dcf80-ebfd-45c2-868f-fb0fe6ae4914}, !- Handle
  60;                                     !- Number of Timesteps per Hour

OS:RunPeriod,
  {49a8c9db-4e77-4760-8a68-6e9bacf5e4f8}, !- Handle
  Run Period 1,                           !- Name
  1,                                      !- Begin Month
  25,                                     !- Begin Day of Month
  2,                                      !- End Month
  1,                                      !- End Day of Month
  No,                                     !- Use Weather File Holidays and Special Days
  No,                                     !- Use Weather File Daylight Saving Period
  No,                                     !- Apply Weekend Holiday Rule
  Yes,                                    !- Use Weather File Rain Indicators
  Yes,                                    !- Use Weather File Snow Indicators
  ;                                       !- Number of Times Runperiod to be Repeated

OS:YearDescription,
  {627de957-1a3f-4dcc-b53c-a16b7168c889}, !- Handle
  2006,                                   !- Calendar Year
  ,                                       !- Day of Week for Start Day
  ;                                       !- Is Leap Year

OS:ScheduleTypeLimits,
  {8973943b-a746-4744-858c-4b6c327accd8}, !- Handle
  ActivityLevel,                          !- Name
  0,                                      !- Lower Limit Value
  ,                                       !- Upper Limit Value
  Continuous,                             !- Numeric Type
  activitylevel;                          !- Unit Type

OS:ScheduleTypeLimits,
  {72c40e2a-2943-49ca-b1ee-55602d92aa66}, !- Handle
  ActivityLevel 12,                       !- Name
  0,                                      !- Lower Limit Value
  ,                                       !- Upper Limit Value
  Continuous,                             !- Numeric Type
  activitylevel;                          !- Unit Type

OS:ScheduleTypeLimits,
  {c57319f4-56c3-4486-9345-c224fb71275f}, !- Handle
  ActivityLevel 13,                       !- Name
  0,                                      !- Lower Limit Value
  ,                                       !- Upper Limit Value
  Continuous,                             !- Numeric Type
  activitylevel;                          !- Unit Type

OS:ScheduleTypeLimits,
  {a7eb3d7c-a250-4457-b9fe-0c1904698c4d}, !- Handle
  ActivityLevel 5,                        !- Name
  0,                                      !- Lower Limit Value
  ,                                       !- Upper Limit Value
  Continuous,                             !- Numeric Type
  activitylevel;                          !- Unit Type

OS:ScheduleTypeLimits,
  {dea45160-0efb-4a68-8d56-6356c032e1f4}, !- Handle
  Always On Discrete Limits,              !- Name
  0,                                      !- Lower Limit Value
  1,                                      !- Upper Limit Value
  Discrete,                               !- Numeric Type
  availability;                           !- Unit Type

OS:ScheduleTypeLimits,
  {b1edfec4-725a-4918-b315-389e8189a225}, !- Handle
  Fraction,                               !- Name
  0,                                      !- Lower Limit Value
  1,                                      !- Upper Limit Value
  CONTINUOUS;                             !- Numeric Type

OS:ScheduleTypeLimits,
  {da2263ce-6b5f-437a-aa2a-701f38a155bb}, !- Handle
  Fractional,                             !- Name
  0,                                      !- Lower Limit Value
  1,                                      !- Upper Limit Value
  Continuous;                             !- Numeric Type

OS:ScheduleTypeLimits,
  {8828a8e5-6a79-455b-ac6e-48cf48749d9a}, !- Handle
  Temperature 11,                         !- Name
  ,                                       !- Lower Limit Value
  ,                                       !- Upper Limit Value
  Continuous,                             !- Numeric Type
  temperature;                            !- Unit Type

OS:ScheduleTypeLimits,
  {0bd8060e-27bf-496e-b263-dcb62cd913fe}, !- Handle
  Temperature 5,                          !- Name
  ,                                       !- Lower Limit Value
  ,                                       !- Upper Limit Value
  Continuous,                             !- Numeric Type
  temperature;                            !- Unit Type

OS:ScheduleTypeLimits,
  {c5f63153-cb62-4748-acbb-78ccad579c5b}, !- Handle
  Temperature 3,                          !- Name
  ,                                       !- Lower Limit Value
  ,                                       !- Upper Limit Value
  Continuous,                             !- Numeric Type
  temperature;                            !- Unit Type

OS:ScheduleTypeLimits,
  {384ae480-db5c-4d05-90b6-008df3a008bb}, !- Handle
  Temperature 36,                         !- Name
  ,                                       !- Lower Limit Value
  ,                                       !- Upper Limit Value
  Continuous,                             !- Numeric Type
  temperature;                            !- Unit Type

OS:ScheduleTypeLimits,
  {1dc46c82-e50c-4adb-9f3a-190f473b71a9}, !- Handle
  Temperature 37,                         !- Name
  ,                                       !- Lower Limit Value
  ,                                       !- Upper Limit Value
  Continuous,                             !- Numeric Type
  temperature;                            !- Unit Type

OS:ScheduleTypeLimits,
  {988c05b5-2d48-4e4f-8ce9-3029dfeda67c}, !- Handle
  Temperature 4,                          !- Name
  ,                                       !- Lower Limit Value
  ,                                       !- Upper Limit Value
  Continuous,                             !- Numeric Type
  temperature;                            !- Unit Type

OS:Schedule:Day,
  {484c59cf-0f42-44bf-9869-b4a60f6620d0}, !- Handle
  Large Office Activity Default Schedule, !- Name
  {a7eb3d7c-a250-4457-b9fe-0c1904698c4d}, !- Schedule Type Limits Name
  ,                                       !- Interpolate to Timestep
  24,                                     !- Hour 1
  0,                                      !- Minute 1
  120;                                    !- Value Until Time 1

OS:Schedule:Day,
  {be97f893-c250-435f-adb0-76651302e3bd}, !- Handle
  Large Office Activity Summer Design Day, !- Name
  {a7eb3d7c-a250-4457-b9fe-0c1904698c4d}, !- Schedule Type Limits Name
  ,                                       !- Interpolate to Timestep
  24,                                     !- Hour 1
  0,                                      !- Minute 1
  120;                                    !- Value Until Time 1

OS:Schedule:Day,
  {d0916eb5-570a-4f56-9e73-a645740e9d00}, !- Handle
  Large Office Activity Winter Design Day, !- Name
  {a7eb3d7c-a250-4457-b9fe-0c1904698c4d}, !- Schedule Type Limits Name
  ,                                       !- Interpolate to Timestep
  24,                                     !- Hour 1
  0,                                      !- Minute 1
  120;                                    !- Value Until Time 1

OS:Schedule:Day,
  {f531ef0a-313c-44d5-bb4d-5a7c803b859c}, !- Handle
  Large Office Bldg Equip Default Schedule, !- Name
  {da2263ce-6b5f-437a-aa2a-701f38a155bb}, !- Schedule Type Limits Name
  ,                                       !- Interpolate to Timestep
  8,                                      !- Hour 1
  0,                                      !- Minute 1
  0.4,                                    !- Value Until Time 1
  12,                                     !- Hour 2
  0,                                      !- Minute 2
  0.9,                                    !- Value Until Time 2
  13,                                     !- Hour 3
  0,                                      !- Minute 3
  0.8,                                    !- Value Until Time 3
  17,                                     !- Hour 4
  0,                                      !- Minute 4
  0.9,                                    !- Value Until Time 4
  18,                                     !- Hour 5
  0,                                      !- Minute 5
  0.8,                                    !- Value Until Time 5
  20,                                     !- Hour 6
  0,                                      !- Minute 6
  0.6,                                    !- Value Until Time 6
  22,                                     !- Hour 7
  0,                                      !- Minute 7
  0.5,                                    !- Value Until Time 7
  24,                                     !- Hour 8
  0,                                      !- Minute 8
  0.4;                                    !- Value Until Time 8

OS:Schedule:Day,
  {843e96c0-cea9-4c21-bd31-178aea980121}, !- Handle
  Large Office Bldg Equip Rule 1 Day Schedule, !- Name
  {da2263ce-6b5f-437a-aa2a-701f38a155bb}, !- Schedule Type Limits Name
  ,                                       !- Interpolate to Timestep
  24,                                     !- Hour 1
  0,                                      !- Minute 1
  0.3;                                    !- Value Until Time 1

OS:Schedule:Day,
  {c11f18f7-f43d-4f4f-9f2b-432beffbb21b}, !- Handle
  Large Office Bldg Equip Rule 2 Day Schedule, !- Name
  {da2263ce-6b5f-437a-aa2a-701f38a155bb}, !- Schedule Type Limits Name
  ,                                       !- Interpolate to Timestep
  6,                                      !- Hour 1
  0,                                      !- Minute 1
  0.3,                                    !- Value Until Time 1
  8,                                      !- Hour 2
  0,                                      !- Minute 2
  0.4,                                    !- Value Until Time 2
  14,                                     !- Hour 3
  0,                                      !- Minute 3
  0.5,                                    !- Value Until Time 3
  17,                                     !- Hour 4
  0,                                      !- Minute 4
  0.35,                                   !- Value Until Time 4
  24,                                     !- Hour 5
  0,                                      !- Minute 5
  0.3;                                    !- Value Until Time 5

OS:Schedule:Day,
  {eda8f84b-cca1-45bb-ab14-f58f93d744c8}, !- Handle
  Large Office Bldg Equip Summer Design Day, !- Name
  {da2263ce-6b5f-437a-aa2a-701f38a155bb}, !- Schedule Type Limits Name
  ,                                       !- Interpolate to Timestep
  24,                                     !- Hour 1
  0,                                      !- Minute 1
  1;                                      !- Value Until Time 1

OS:Schedule:Day,
  {361a72a8-869b-49ac-b305-54a85209ee7b}, !- Handle
  Large Office Bldg Equip Winter Design Day, !- Name
  {da2263ce-6b5f-437a-aa2a-701f38a155bb}, !- Schedule Type Limits Name
  ,                                       !- Interpolate to Timestep
  24,                                     !- Hour 1
  0,                                      !- Minute 1
  0;                                      !- Value Until Time 1

OS:Schedule:Day,
  {443f67a5-6c0b-4e57-bf56-6b1951e39ab6}, !- Handle
  Large Office Bldg Light Default Schedule, !- Name
  {da2263ce-6b5f-437a-aa2a-701f38a155bb}, !- Schedule Type Limits Name
  ,                                       !- Interpolate to Timestep
  5,                                      !- Hour 1
  0,                                      !- Minute 1
  0.05,                                   !- Value Until Time 1
  7,                                      !- Hour 2
  0,                                      !- Minute 2
  0.1,                                    !- Value Until Time 2
  8,                                      !- Hour 3
  0,                                      !- Minute 3
  0.3,                                    !- Value Until Time 3
  17,                                     !- Hour 4
  0,                                      !- Minute 4
  0.9,                                    !- Value Until Time 4
  18,                                     !- Hour 5
  0,                                      !- Minute 5
  0.7,                                    !- Value Until Time 5
  20,                                     !- Hour 6
  0,                                      !- Minute 6
  0.5,                                    !- Value Until Time 6
  22,                                     !- Hour 7
  0,                                      !- Minute 7
  0.3,                                    !- Value Until Time 7
  23,                                     !- Hour 8
  0,                                      !- Minute 8
  0.1,                                    !- Value Until Time 8
  24,                                     !- Hour 9
  0,                                      !- Minute 9
  0.05;                                   !- Value Until Time 9

OS:Schedule:Day,
  {c4f60043-847d-4de4-8a94-c22bffdb0a5a}, !- Handle
  Large Office Bldg Light Rule 1 Day Schedule, !- Name
  {da2263ce-6b5f-437a-aa2a-701f38a155bb}, !- Schedule Type Limits Name
  ,                                       !- Interpolate to Timestep
  24,                                     !- Hour 1
  0,                                      !- Minute 1
  0.05;                                   !- Value Until Time 1

OS:Schedule:Day,
  {f8bc06b1-5064-48e6-b29c-3e37c5068be1}, !- Handle
  Large Office Bldg Light Rule 2 Day Schedule, !- Name
  {da2263ce-6b5f-437a-aa2a-701f38a155bb}, !- Schedule Type Limits Name
  ,                                       !- Interpolate to Timestep
  6,                                      !- Hour 1
  0,                                      !- Minute 1
  0.05,                                   !- Value Until Time 1
  8,                                      !- Hour 2
  0,                                      !- Minute 2
  0.1,                                    !- Value Until Time 2
  14,                                     !- Hour 3
  0,                                      !- Minute 3
  0.5,                                    !- Value Until Time 3
  17,                                     !- Hour 4
  0,                                      !- Minute 4
  0.15,                                   !- Value Until Time 4
  24,                                     !- Hour 5
  0,                                      !- Minute 5
  0.05;                                   !- Value Until Time 5

OS:Schedule:Day,
  {6de440f5-5172-47cb-9a44-bdecef88ac8a}, !- Handle
  Large Office Bldg Light Summer Design Day, !- Name
  {da2263ce-6b5f-437a-aa2a-701f38a155bb}, !- Schedule Type Limits Name
  ,                                       !- Interpolate to Timestep
  24,                                     !- Hour 1
  0,                                      !- Minute 1
  1;                                      !- Value Until Time 1

OS:Schedule:Day,
  {ac829e83-d20c-4330-abd9-b15fdb417f09}, !- Handle
  Large Office Bldg Light Winter Design Day, !- Name
  {da2263ce-6b5f-437a-aa2a-701f38a155bb}, !- Schedule Type Limits Name
  ,                                       !- Interpolate to Timestep
  24,                                     !- Hour 1
  0,                                      !- Minute 1
  0;                                      !- Value Until Time 1

OS:Schedule:Day,
  {c146611e-b45a-4d65-b95e-cd13ceb7894e}, !- Handle
  Large Office Bldg Occ Default Schedule, !- Name
  {da2263ce-6b5f-437a-aa2a-701f38a155bb}, !- Schedule Type Limits Name
  ,                                       !- Interpolate to Timestep
  6,                                      !- Hour 1
  0,                                      !- Minute 1
  0,                                      !- Value Until Time 1
  7,                                      !- Hour 2
  0,                                      !- Minute 2
  0.1,                                    !- Value Until Time 2
  8,                                      !- Hour 3
  0,                                      !- Minute 3
  0.2,                                    !- Value Until Time 3
  12,                                     !- Hour 4
  0,                                      !- Minute 4
  0.95,                                   !- Value Until Time 4
  13,                                     !- Hour 5
  0,                                      !- Minute 5
  0.5,                                    !- Value Until Time 5
  17,                                     !- Hour 6
  0,                                      !- Minute 6
  0.95,                                   !- Value Until Time 6
  18,                                     !- Hour 7
  0,                                      !- Minute 7
  0.7,                                    !- Value Until Time 7
  20,                                     !- Hour 8
  0,                                      !- Minute 8
  0.4,                                    !- Value Until Time 8
  22,                                     !- Hour 9
  0,                                      !- Minute 9
  0.1,                                    !- Value Until Time 9
  24,                                     !- Hour 10
  0,                                      !- Minute 10
  0.05;                                   !- Value Until Time 10

OS:Schedule:Day,
  {e7794b83-a101-468f-a1eb-8b57ac73a19a}, !- Handle
  Large Office Bldg Occ Rule 1 Day Schedule, !- Name
  {da2263ce-6b5f-437a-aa2a-701f38a155bb}, !- Schedule Type Limits Name
  ,                                       !- Interpolate to Timestep
  24,                                     !- Hour 1
  0,                                      !- Minute 1
  0;                                      !- Value Until Time 1

OS:Schedule:Day,
  {1394f570-c12a-4801-985b-9969e4e4d0c1}, !- Handle
  Large Office Bldg Occ Rule 2 Day Schedule, !- Name
  {da2263ce-6b5f-437a-aa2a-701f38a155bb}, !- Schedule Type Limits Name
  ,                                       !- Interpolate to Timestep
  6,                                      !- Hour 1
  0,                                      !- Minute 1
  0,                                      !- Value Until Time 1
  8,                                      !- Hour 2
  0,                                      !- Minute 2
  0.1,                                    !- Value Until Time 2
  14,                                     !- Hour 3
  0,                                      !- Minute 3
  0.5,                                    !- Value Until Time 3
  17,                                     !- Hour 4
  0,                                      !- Minute 4
  0.1,                                    !- Value Until Time 4
  24,                                     !- Hour 5
  0,                                      !- Minute 5
  0;                                      !- Value Until Time 5

OS:Schedule:Day,
  {6584dc05-efac-4d1e-93a3-11a2d84c2a4a}, !- Handle
  Large Office Bldg Occ Summer Design Day, !- Name
  {da2263ce-6b5f-437a-aa2a-701f38a155bb}, !- Schedule Type Limits Name
  ,                                       !- Interpolate to Timestep
  6,                                      !- Hour 1
  0,                                      !- Minute 1
  0,                                      !- Value Until Time 1
  22,                                     !- Hour 2
  0,                                      !- Minute 2
  1,                                      !- Value Until Time 2
  24,                                     !- Hour 3
  0,                                      !- Minute 3
  0.05;                                   !- Value Until Time 3

OS:Schedule:Day,
  {5023cc97-6f35-4dc5-86ff-08c6522e1389}, !- Handle
  Large Office Bldg Occ Winter Design Day, !- Name
  {da2263ce-6b5f-437a-aa2a-701f38a155bb}, !- Schedule Type Limits Name
  ,                                       !- Interpolate to Timestep
  24,                                     !- Hour 1
  0,                                      !- Minute 1
  0;                                      !- Value Until Time 1

OS:Schedule:Day,
  {0ed41c1c-55b7-4e69-958a-e18a245cbaa2}, !- Handle
  Large Office ClgSetp Default Schedule,  !- Name
  {0bd8060e-27bf-496e-b263-dcb62cd913fe}, !- Schedule Type Limits Name
  ,                                       !- Interpolate to Timestep
  6,                                      !- Hour 1
  0,                                      !- Minute 1
  26.7,                                   !- Value Until Time 1
  22,                                     !- Hour 2
  0,                                      !- Minute 2
  24,                                     !- Value Until Time 2
  24,                                     !- Hour 3
  0,                                      !- Minute 3
  26.7;                                   !- Value Until Time 3

OS:Schedule:Day,
  {864d2d99-a11f-4453-88dd-1e09a4eb57d7}, !- Handle
  Large Office ClgSetp Rule 1 Day Schedule, !- Name
  {0bd8060e-27bf-496e-b263-dcb62cd913fe}, !- Schedule Type Limits Name
  ,                                       !- Interpolate to Timestep
  24,                                     !- Hour 1
  0,                                      !- Minute 1
  26.7;                                   !- Value Until Time 1

OS:Schedule:Day,
  {b9511570-175f-4194-b5fc-08f2e7ecf6de}, !- Handle
  Large Office ClgSetp Rule 2 Day Schedule, !- Name
  {0bd8060e-27bf-496e-b263-dcb62cd913fe}, !- Schedule Type Limits Name
  ,                                       !- Interpolate to Timestep
  6,                                      !- Hour 1
  0,                                      !- Minute 1
  26.7,                                   !- Value Until Time 1
  18,                                     !- Hour 2
  0,                                      !- Minute 2
  24,                                     !- Value Until Time 2
  24,                                     !- Hour 3
  0,                                      !- Minute 3
  26.7;                                   !- Value Until Time 3

OS:Schedule:Day,
  {7aecd000-5fbf-43a8-9b1d-a1b50cda7cdc}, !- Handle
  Large Office ClgSetp Summer Design Day, !- Name
  {0bd8060e-27bf-496e-b263-dcb62cd913fe}, !- Schedule Type Limits Name
  ,                                       !- Interpolate to Timestep
  6,                                      !- Hour 1
  0,                                      !- Minute 1
  26.7,                                   !- Value Until Time 1
  22,                                     !- Hour 2
  0,                                      !- Minute 2
  24,                                     !- Value Until Time 2
  24,                                     !- Hour 3
  0,                                      !- Minute 3
  26.7;                                   !- Value Until Time 3

OS:Schedule:Day,
  {5400bea7-a31c-49e7-a7ad-1ee1d7b029a7}, !- Handle
  Large Office ClgSetp Winter Design Day, !- Name
  {0bd8060e-27bf-496e-b263-dcb62cd913fe}, !- Schedule Type Limits Name
  ,                                       !- Interpolate to Timestep
  24,                                     !- Hour 1
  0,                                      !- Minute 1
  26.7;                                   !- Value Until Time 1

OS:Schedule:Day,
  {dd22455b-97e6-414c-bab2-d8deb37e11c7}, !- Handle
  Large Office HtgSetp Default Schedule,  !- Name
  {c5f63153-cb62-4748-acbb-78ccad579c5b}, !- Schedule Type Limits Name
  ,                                       !- Interpolate to Timestep
  6,                                      !- Hour 1
  0,                                      !- Minute 1
  15.6,                                   !- Value Until Time 1
  22,                                     !- Hour 2
  0,                                      !- Minute 2
  21,                                     !- Value Until Time 2
  24,                                     !- Hour 3
  0,                                      !- Minute 3
  15.6;                                   !- Value Until Time 3

OS:Schedule:Day,
  {a0b2004a-7bab-4707-bbcd-3add7044c630}, !- Handle
  Large Office HtgSetp Rule 1 Day Schedule, !- Name
  {c5f63153-cb62-4748-acbb-78ccad579c5b}, !- Schedule Type Limits Name
  ,                                       !- Interpolate to Timestep
  24,                                     !- Hour 1
  0,                                      !- Minute 1
  15.6;                                   !- Value Until Time 1

OS:Schedule:Day,
  {1655b95b-e984-4f38-838e-78236b62ca61}, !- Handle
  Large Office HtgSetp Rule 2 Day Schedule, !- Name
  {c5f63153-cb62-4748-acbb-78ccad579c5b}, !- Schedule Type Limits Name
  ,                                       !- Interpolate to Timestep
  6,                                      !- Hour 1
  0,                                      !- Minute 1
  15.6,                                   !- Value Until Time 1
  18,                                     !- Hour 2
  0,                                      !- Minute 2
  21,                                     !- Value Until Time 2
  24,                                     !- Hour 3
  0,                                      !- Minute 3
  15.6;                                   !- Value Until Time 3

OS:Schedule:Day,
  {8b07da72-72f4-4932-b252-d99dbf2996ff}, !- Handle
  Large Office HtgSetp Summer Design Day, !- Name
  {c5f63153-cb62-4748-acbb-78ccad579c5b}, !- Schedule Type Limits Name
  ,                                       !- Interpolate to Timestep
  24,                                     !- Hour 1
  0,                                      !- Minute 1
  15.6;                                   !- Value Until Time 1

OS:Schedule:Day,
  {2ec77d2e-517d-41f2-a739-ff4aef528e91}, !- Handle
  Large Office HtgSetp Winter Design Day, !- Name
  {c5f63153-cb62-4748-acbb-78ccad579c5b}, !- Schedule Type Limits Name
  ,                                       !- Interpolate to Timestep
  24,                                     !- Hour 1
  0,                                      !- Minute 1
  21;                                     !- Value Until Time 1

OS:Schedule:Day,
  {f19ccc15-1280-4045-8e03-8e3d70342a4e}, !- Handle
  Large Office Infil Quarter On Default Schedule, !- Name
  {da2263ce-6b5f-437a-aa2a-701f38a155bb}, !- Schedule Type Limits Name
  ,                                       !- Interpolate to Timestep
  6,                                      !- Hour 1
  0,                                      !- Minute 1
  1,                                      !- Value Until Time 1
  22,                                     !- Hour 2
  0,                                      !- Minute 2
  0.25,                                   !- Value Until Time 2
  24,                                     !- Hour 3
  0,                                      !- Minute 3
  1;                                      !- Value Until Time 3

OS:Schedule:Day,
  {ad9445cf-0d6e-4be2-976d-b3315c666cb1}, !- Handle
  Large Office Infil Quarter On Rule 1 Day Schedule, !- Name
  {da2263ce-6b5f-437a-aa2a-701f38a155bb}, !- Schedule Type Limits Name