
OS:Version,
  {0e0c20f2-ae41-43a3-a895-ef34861b07d2}, !- Handle
  2.9.1;                                  !- Version Identifier

OS:SimulationControl,
  {a38fa0a7-1bee-42c5-9e4b-302db331966f}, !- Handle
  No,                                     !- Do Zone Sizing Calculation
  No,                                     !- Do System Sizing Calculation
  No,                                     !- Do Plant Sizing Calculation
  No,                                     !- Run Simulation for Sizing Periods
  Yes,                                    !- Run Simulation for Weather File Run Periods
  ,                                       !- Loads Convergence Tolerance Value
  ,                                       !- Temperature Convergence Tolerance Value {deltaC}
  ;                                       !- Solar Distribution

OS:Building,
  {6331fe7e-5b9b-4e08-8b34-4526dd771793}, !- Handle
  LES,                                    !- Name
  ,                                       !- Building Sector Type
  ,                                       !- North Axis {deg}
  ,                                       !- Nominal Floor to Floor Height {m}
  ,                                       !- Space Type Name
  ,                                       !- Default Construction Set Name
  ,                                       !- Default Schedule Set Name
  ,                                       !- Standards Number of Stories
  ,                                       !- Standards Number of Above Ground Stories
  ,                                       !- Standards Template
  ,                                       !- Standards Building Type
  ,                                       !- Standards Number of Living Units
  ,                                       !- Relocatable
  ;                                       !- Nominal Floor to Ceiling Height {m}

OS:ShadowCalculation,
  {4341b3c4-91da-473e-bb09-d8929c01d7d7}, !- Handle
  20,                                     !- Calculation Frequency
  15000;                                  !- Maximum Figures in Shadow Overlap Calculations

OS:HeatBalanceAlgorithm,
  {8b780eff-3278-4d89-ae70-7f71a27cb76a}, !- Handle
  ConductionTransferFunction,             !- Algorithm
  200;                                    !- Surface Temperature Upper Limit {C}

OS:RunPeriod,
  {cd482a1f-bea5-4efd-a420-400ccbc58d31}, !- Handle
  Run Period 1,                           !- Name
  1,                                      !- Begin Month
  25,                                     !- Begin Day of Month
  2,                                      !- End Month
  1,                                      !- End Day of Month
  No,                                     !- Use Weather File Holidays and Special Days
  No,                                     !- Use Weather File Daylight Saving Period
  No,                                     !- Apply Weekend Holiday Rule
  Yes,                                    !- Use Weather File Rain Indicators
  Yes,                                    !- Use Weather File Snow Indicators
  ;                                       !- Number of Times Runperiod to be Repeated

OS:YearDescription,
  {9dd51339-b251-4f6d-a2dc-56a6a9848b8e}, !- Handle
  2006,                                   !- Calendar Year
  ,                                       !- Day of Week for Start Day
  ;                                       !- Is Leap Year

OS:Timestep,
  {9988320a-a89c-49ac-af79-2738aca97cf4}, !- Handle
  60;                                     !- Number of Timesteps per Hour

OS:ConvergenceLimits,
  {4e148e7f-08c8-4a45-a591-52e5d95cf1ff}, !- Handle
  1;                                      !- Minimum System Timestep {minutes}

OS:SizingPeriod:DesignDay,
  {81772a01-0909-45f7-b630-a68cd618aedf}, !- Handle
  Sizing Period Design Day 1,             !- Name
  40,                                     !- Maximum Dry-Bulb Temperature {C}
  10,                                     !- Daily Dry-Bulb Temperature Range {deltaC}
  23,                                     !- Humidity Indicating Conditions at Maximum Dry-Bulb
  87900,                                  !- Barometric Pressure {Pa}
  0,                                      !- Wind Speed {m/s}
  0,                                      !- Wind Direction {deg}
  0,                                      !- Sky Clearness
  0,                                      !- Rain Indicator
  0,                                      !- Snow Indicator
  1,                                      !- Day of Month
  2,                                      !- Month
  SummerDesignDay,                        !- Day Type
  0,                                      !- Daylight Saving Time Indicator
  WetBulb,                                !- Humidity Indicating Type
  ,                                       !- Humidity Indicating Day Schedule Name
  DefaultMultipliers,                     !- Dry-Bulb Temperature Range Modifier Type
  ,                                       !- Dry-Bulb Temperature Range Modifier Schedule Name
  ASHRAEClearSky;                         !- Solar Model Indicator

OS:ScheduleTypeLimits,
  {a3141ca9-6dd2-46c6-adb5-3836e5de56aa}, !- Handle
  ActivityLevel,                          !- Name
  0,                                      !- Lower Limit Value
  ,                                       !- Upper Limit Value
  Continuous,                             !- Numeric Type
  activitylevel;                          !- Unit Type

OS:ScheduleTypeLimits,
  {08a8d1cb-b805-45fd-9486-e33d2320be2a}, !- Handle
  ActivityLevel 12,                       !- Name
  0,                                      !- Lower Limit Value
  ,                                       !- Upper Limit Value
  Continuous,                             !- Numeric Type
  activitylevel;                          !- Unit Type

OS:ScheduleTypeLimits,
  {9c6f974c-aa3c-41a0-890c-4630ee33427c}, !- Handle
  ActivityLevel 13,                       !- Name
  0,                                      !- Lower Limit Value
  ,                                       !- Upper Limit Value
  Continuous,                             !- Numeric Type
  activitylevel;                          !- Unit Type

OS:ScheduleTypeLimits,
  {1eed0955-0a64-42ab-a367-f5440b4ab094}, !- Handle
  ActivityLevel 5,                        !- Name
  0,                                      !- Lower Limit Value
  ,                                       !- Upper Limit Value
  Continuous,                             !- Numeric Type
  activitylevel;                          !- Unit Type

OS:ScheduleTypeLimits,
  {34c76dd9-3ac8-4d0b-990d-326d0e79f346}, !- Handle
  Fraction,                               !- Name
  0,                                      !- Lower Limit Value
  1,                                      !- Upper Limit Value
  CONTINUOUS;                             !- Numeric Type

OS:ScheduleTypeLimits,
  {f68f4541-53e4-4776-850e-5c5b0c6960ea}, !- Handle
  Fractional,                             !- Name
  0,                                      !- Lower Limit Value
  1,                                      !- Upper Limit Value
  Continuous;                             !- Numeric Type

OS:ScheduleTypeLimits,
  {0861a042-af72-4ac7-8060-02724c712654}, !- Handle
  Temperature 11,                         !- Name
  ,                                       !- Lower Limit Value
  ,                                       !- Upper Limit Value
  Continuous,                             !- Numeric Type
  temperature;                            !- Unit Type

OS:ScheduleTypeLimits,
  {ef84ab23-6b01-4efb-a59b-ea0e60be2c69}, !- Handle
  Temperature 3,                          !- Name
  ,                                       !- Lower Limit Value
  ,                                       !- Upper Limit Value
  Continuous,                             !- Numeric Type
  temperature;                            !- Unit Type

OS:ScheduleTypeLimits,
  {81ddaf21-6737-4ac1-ad41-56691e5ad3ff}, !- Handle
  Temperature 36,                         !- Name
  ,                                       !- Lower Limit Value
  ,                                       !- Upper Limit Value
  Continuous,                             !- Numeric Type
  temperature;                            !- Unit Type

OS:ScheduleTypeLimits,
  {69294dec-375e-4a95-a2e6-e48564320cef}, !- Handle
  Temperature 37,                         !- Name
  ,                                       !- Lower Limit Value
  ,                                       !- Upper Limit Value
  Continuous,                             !- Numeric Type
  temperature;                            !- Unit Type

OS:ScheduleTypeLimits,
  {9d552d79-008c-4eea-ab35-8823ae9608ba}, !- Handle
  Temperature 4,                          !- Name
  ,                                       !- Lower Limit Value
  ,                                       !- Upper Limit Value
  Continuous,                             !- Numeric Type
  temperature;                            !- Unit Type

OS:ScheduleTypeLimits,
  {415e8b59-acf9-498d-8d8e-5f9547e23692}, !- Handle
  Temperature 5,                          !- Name
  ,                                       !- Lower Limit Value
  ,                                       !- Upper Limit Value
  Continuous,                             !- Numeric Type
  temperature;                            !- Unit Type

OS:ScheduleTypeLimits,
  {783b21e6-03af-40f0-9144-6f8583432a47}, !- Handle
  Clima_Thermostat,                       !- Name
  0,                                      !- Lower Limit Value
  4,                                      !- Upper Limit Value
  Discrete;                               !- Numeric Type

OS:ScheduleTypeLimits,
  {a4c8b84d-240c-4d30-aa23-6cd6ac3b3525}, !- Handle
  Guarda_Thermostat,                      !- Name
  0,                                      !- Lower Limit Value
  4,                                      !- Upper Limit Value
  Discrete;                               !- Numeric Type

OS:ScheduleTypeLimits,
  {0fa44f61-23e1-4cc3-8f58-72f864bd9938}, !- Handle
  Habitacion_Thermostat,                  !- Name
  0,                                      !- Lower Limit Value
  4,                                      !- Upper Limit Value
  Discrete;                               !- Numeric Type

OS:ScheduleTypeLimits,
  {2cfdb432-4129-45ca-9366-d98d4768d8dc}, !- Handle
  Temperature,                            !- Name
  0,                                      !- Lower Limit Value
  100,                                    !- Upper Limit Value
  Continuous,                             !- Numeric Type
  Temperature;                            !- Unit Type

OS:ScheduleTypeLimits,
  {e9da7280-6619-4921-b1fe-1cd656eae672}, !- Handle
  ZoneEqList ScheduleTypeLimts,           !- Name
  0,                                      !- Lower Limit Value
  1,                                      !- Upper Limit Value
  Continuous;                             !- Numeric Type

OS:Schedule:Compact,
  {b62bf1ef-9ddc-4765-8fc7-904cdf739bda}, !- Handle
  TZ-clima,                               !- Name
  {783b21e6-03af-40f0-9144-6f8583432a47}, !- Schedule Type Limits Name
  Through: 12/31,                         !- Field 1
  For: AllDays,                           !- Field 2
  Until: 24:00,                           !- Field 3
  4;                                      !- Field 4

OS:Schedule:Compact,
  {e308be1f-ed24-4545-b73c-c8615c4de2ea}, !- Handle
  TZ-guarda,                              !- Name
  {a4c8b84d-240c-4d30-aa23-6cd6ac3b3525}, !- Schedule Type Limits Name
  Through: 12/31,                         !- Field 1
  For: AllDays,                           !- Field 2
  Until: 24:00,                           !- Field 3
  4;                                      !- Field 4

OS:Schedule:Compact,
  {67c25878-c1a8-49f3-8723-4b9c1877e59d}, !- Handle
  TZ-hab,                                 !- Name
  {0fa44f61-23e1-4cc3-8f58-72f864bd9938}, !- Schedule Type Limits Name
  Through: 12/31,                         !- Field 1
  For: AllDays,                           !- Field 2
  Until: 24:00,                           !- Field 3
  4;                                      !- Field 4

OS:Schedule:Compact,
  {cf74f673-db3a-4be4-9675-922d55d5d6a7}, !- Handle
  Cooling_2,                              !- Name
  {9d552d79-008c-4eea-ab35-8823ae9608ba}, !- Schedule Type Limits Name
  Through: 12/31,                         !- Field 1
  For: AllDays,                           !- Field 2
  Until: 24:00,                           !- Field 3
  20;                                     !- Field 4

OS:Schedule:Compact,
  {3d1ada88-8703-4833-a599-c6844664fc72}, !- Handle
  Heating,                                !- Name
  {9d552d79-008c-4eea-ab35-8823ae9608ba}, !- Schedule Type Limits Name
  Through: 12/31,                         !- Field 1
  For: AllDays,                           !- Field 2
  Until: 24:00,                           !- Field 3
  18;                                     !- Field 4

OS:Schedule:Compact,
  {d8d354e9-f0c4-4f63-93ad-6443b489bd09}, !- Handle
  Cooling,                                !- Name
  {9d552d79-008c-4eea-ab35-8823ae9608ba}, !- Schedule Type Limits Name
  Through: 12/31,                         !- Field 1
  For: AllDays,                           !- Field 2
  Until: 24:00,                           !- Field 3
  20;                                     !- Field 4

OS:Schedule:Compact,
  {72f8a329-ed7c-4a83-9f09-c87bbf2c1946}, !- Handle
  Heating_2,                              !- Name
  {9d552d79-008c-4eea-ab35-8823ae9608ba}, !- Schedule Type Limits Name
  Through: 12/31,                         !- Field 1
  For: AllDays,                           !- Field 2
  Until: 24:00,                           !- Field 3
  18;                                     !- Field 4

OS:Schedule:Compact,
  {63d26740-973b-4b0c-9565-6636e0552861}, !- Handle
  Cooling_3,                              !- Name
  {9d552d79-008c-4eea-ab35-8823ae9608ba}, !- Schedule Type Limits Name
  Through: 12/31,                         !- Field 1
  For: AllDays,                           !- Field 2
  Until: 24:00,                           !- Field 3
  20;                                     !- Field 4

OS:Schedule:Compact,
  {6a0b61f2-65d7-4b91-923a-542029a929f2}, !- Handle
  Heating_3,                              !- Name
  {9d552d79-008c-4eea-ab35-8823ae9608ba}, !- Schedule Type Limits Name
  Through: 12/31,                         !- Field 1
  For: AllDays,                           !- Field 2
  Until: 24:00,                           !- Field 3
  18;                                     !- Field 4

OS:Schedule:Constant,
  {9d916af4-da5b-480d-bb65-f02c8a6d3f7d}, !- Handle
  Always On Discrete,                     !- Name
  ,                                       !- Schedule Type Limits Name
  1;                                      !- Value

OS:Schedule:Constant,
  {a25b544d-c03b-46a8-88ba-17493f1af929}, !- Handle
  Always Off Discrete,                    !- Name
  ,                                       !- Schedule Type Limits Name
  0;                                      !- Value

OS:Schedule:Constant,
  {8f45f3a0-a840-4585-90a7-364f7f76e1b2}, !- Handle
  Always On Continuous,                   !- Name
  ,                                       !- Schedule Type Limits Name
  1;                                      !- Value

OS:Schedule:Constant,
  {6c8bbc18-b25b-4711-9907-d7ebaca00fc7}, !- Handle
  TZ_clima Equipment CoolingFrac1,        !- Name
  {e9da7280-6619-4921-b1fe-1cd656eae672}, !- Schedule Type Limits Name
  1;                                      !- Value

OS:Schedule:Constant,
  {08f279fa-f007-4cb4-bfce-c5e6aaa29d22}, !- Handle
  TZ_clima Equipment HeatingFrac1,        !- Name
  {e9da7280-6619-4921-b1fe-1cd656eae672}, !- Schedule Type Limits Name
  1;                                      !- Value

OS:Schedule:Constant,
  {986b14cb-fb8c-402d-bb10-46af353cf753}, !- Handle
  TZ_guarda Equipment CoolingFrac1,       !- Name
  {e9da7280-6619-4921-b1fe-1cd656eae672}, !- Schedule Type Limits Name
  1;                                      !- Value

OS:Schedule:Constant,
  {b5897949-2438-48c0-a81c-408d060dd914}, !- Handle
  TZ_guarda Equipment HeatingFrac1,       !- Name
  {e9da7280-6619-4921-b1fe-1cd656eae672}, !- Schedule Type Limits Name
  1;                                      !- Value

OS:Schedule:Constant,
  {1961334d-6bf2-4ed5-921f-076f667e5a55}, !- Handle
  TZ_habitacion Equipment CoolingFrac1,   !- Name
  {e9da7280-6619-4921-b1fe-1cd656eae672}, !- Schedule Type Limits Name
  1;                                      !- Value

OS:Schedule:Constant,
  {a0a34086-459c-4bc0-95e5-4707d7904409}, !- Handle
  TZ_habitacion Equipment HeatingFrac1,   !- Name
  {e9da7280-6619-4921-b1fe-1cd656eae672}, !- Schedule Type Limits Name
  1;                                      !- Value

OS:Material,
  {52043ef8-dd12-4b62-b829-0ad64280a48e}, !- Handle
  Aluminio,                               !- Name
  Smooth,                                 !- Roughness
  0.005,                                  !- Thickness {m}
  250,                                    !- Conductivity {W/m-K}
  2800,                                   !- Density {kg/m3}
  896,                                    !- Specific Heat {J/kg-K}
  0.9,                                    !- Thermal Absorptance
  0.1,                                    !- Solar Absorptance
  0.1;                                    !- Visible Absorptance

OS:Material,
  {54a4e33c-539b-4218-a081-827f8e120ad1}, !- Handle
  Poliuretano expandido,                  !- Name
  Smooth,                                 !- Roughness
  0.11,                                   !- Thickness {m}
  0.035,                                  !- Conductivity {W/m-K}
  25,                                     !- Density {kg/m3}
  1400,                                   !- Specific Heat {J/kg-K}
  1e-007,                                 !- Thermal Absorptance
  0.3,                                    !- Solar Absorptance
  0.3;                                    !- Visible Absorptance

OS:Material,
  {61246b12-96de-4759-8a7e-0a089e87bb1b}, !- Handle
  Concreto AD,                            !- Name
  Smooth,                                 !- Roughness
  0.1,                                    !- Thickness {m}
  2,                                      !- Conductivity {W/m-K}
  2400,                                   !- Density {kg/m3}
  1000,                                   !- Specific Heat {J/kg-K}
  0.9,                                    !- Thermal Absorptance
  0.9,                                    !- Solar Absorptance
  0.9;                                    !- Visible Absorptance

OS:Material,
  {80c89753-0dcc-49e9-afec-909703aa48ce}, !- Handle
  paquime,                                !- Name
  Smooth,                                 !- Roughness
  0.15,                                   !- Thickness {m}
  0.54,                                   !- Conductivity {W/m-K}
  1891.5,                                 !- Density {kg/m3}
  550,                                    !- Specific Heat {J/kg-K}
  0.9,                                    !- Thermal Absorptance
  0.6,                                    !- Solar Absorptance
  0.6;                                    !- Visible Absorptance

OS:Material,
  {e12db2c4-f349-4597-81a1-cec7bf85548d}, !- Handle
  triplay,                                !- Name
  Smooth,                                 !- Roughness
  0.01,                                   !- Thickness {m}
  0.15,                                   !- Conductivity {W/m-K}
  700,                                    !- Density {kg/m3}
  1420,                                   !- Specific Heat {J/kg-K}
  0.9,                                    !- Thermal Absorptance
  0.3,                                    !- Solar Absorptance
  0.3;                                    !- Visible Absorptance

OS:Material,
  {1bbb54ec-4706-442a-9802-32f8fecf5048}, !- Handle
  lamina,                                 !- Name
  Smooth,                                 !- Roughness
  0.005,                                  !- Thickness {m}
  50,                                     !- Conductivity {W/m-K}
  7300,                                   !- Density {kg/m3}
  240,                                    !- Specific Heat {J/kg-K}
  0.1,                                    !- Thermal Absorptance
  0.7,                                    !- Solar Absorptance
  0.7;                                    !- Visible Absorptance

OS:Material:NoMass,
  {9d835df6-32b7-44ee-b930-eb9d0eae7909}, !- Handle
  CP02 CARPET PAD,                        !- Name
  Smooth,                                 !- Roughness
  0.1,                                    !- Thermal Resistance {m2-K/W}
  0.9,                                    !- Thermal Absorptance
  0.8,                                    !- Solar Absorptance
  0.8;                                    !- Visible Absorptance

OS:Material:NoMass,
  {0b21563e-fa73-4082-b956-8d03b590f32d}, !- Handle
  Paredes_jr,                             !- Name
  Smooth,                                 !- Roughness
  0.001,                                  !- Thermal Resistance {m2-K/W}
  0.1,                                    !- Thermal Absorptance
  0.7,                                    !- Solar Absorptance
  0.7;                                    !- Visible Absorptance

OS:Material:NoMass,
  {738d157d-18e1-4fa3-8b12-27ea94fd141a}, !- Handle
  LaminaNM,                               !- Name
  Smooth,                                 !- Roughness
  0.001,                                  !- Thermal Resistance {m2-K/W}
  1e-007,                                 !- Thermal Absorptance
  0.7,                                    !- Solar Absorptance
  0.7;                                    !- Visible Absorptance

OS:Material:AirGap,
  {647a20ef-78e9-4af0-a4c8-2b15ae9cf005}, !- Handle
  F04 Wall air space resistance,          !- Name
  0.15;                                   !- Thermal Resistance {m2-K/W}

OS:Material:AirGap,
  {01bd74be-2353-4424-8ebb-a4727a2b88c2}, !- Handle
  F05 Ceiling air space resistance,       !- Name
  0.18;                                   !- Thermal Resistance {m2-K/W}

OS:WindowMaterial:Glazing,
  {bd12f512-20aa-4862-abbb-9a415a1f1467}, !- Handle
  Clear 3mm,                              !- Name
  Spectral,                               !- Optical Data Type
  ,                                       !- Window Glass Spectral Data Set Name
  0.00299999999999999,                    !- Thickness {m}
  0.837,                                  !- Solar Transmittance at Normal Incidence
  0.075,                                  !- Front Side Solar Reflectance at Normal Incidence
  0,                                      !- Back Side Solar Reflectance at Normal Incidence
  0.898,                                  !- Visible Transmittance at Normal Incidence
  0.081,                                  !- Front Side Visible Reflectance at Normal Incidence
  0,                                      !- Back Side Visible Reflectance at Normal Incidence
  0,                                      !- Infrared Transmittance at Normal Incidence
  0.84,                                   !- Front Side Infrared Hemispherical Emissivity
  0.84,                                   !- Back Side Infrared Hemispherical Emissivity
  0.9,                                    !- Conductivity {W/m-K}
  1,                                      !- Dirt Correction Factor for Solar and Visible Transmittance
  No;                                     !- Solar Diffusing

OS:WindowMaterial:Glazing,
  {6b2b9dca-5740-4e3e-89bf-0e5ed700b147}, !- Handle
  Theoretical Glass [167],                !- Name
  Spectral,                               !- Optical Data Type
  ,                                       !- Window Glass Spectral Data Set Name
  0.00299999999999999,                    !- Thickness {m}
  0.2374,                                 !- Solar Transmittance at Normal Incidence
  0.7126,                                 !- Front Side Solar Reflectance at Normal Incidence
  0,                                      !- Back Side Solar Reflectance at Normal Incidence
  0.2512,                                 !- Visible Transmittance at Normal Incidence
  0.6988,                                 !- Front Side Visible Reflectance at Normal Incidence
  0,                                      !- Back Side Visible Reflectance at Normal Incidence
  0,                                      !- Infrared Transmittance at Normal Incidence
  0.985,                                  !- Front Side Infrared Hemispherical Emissivity
  0.985,                                  !- Back Side Infrared Hemispherical Emissivity
  2.1073,                                 !- Conductivity {W/m-K}
  1,                                      !- Dirt Correction Factor for Solar and Visible Transmittance
  No;                                     !- Solar Diffusing

OS:WindowMaterial:Glazing,
  {62e1c8cf-268e-45eb-8933-cbbab3c5b707}, !- Handle
  Theoretical Glass [197],                !- Name
  Spectral,                               !- Optical Data Type
  ,                                       !- Window Glass Spectral Data Set Name
  0.00299999999999999,                    !- Thickness {m}
  0.2349,                                 !- Solar Transmittance at Normal Incidence
  0.7151,                                 !- Front Side Solar Reflectance at Normal Incidence
  0,                                      !- Back Side Solar Reflectance at Normal Incidence
  0.2512,                                 !- Visible Transmittance at Normal Incidence
  0.6988,                                 !- Front Side Visible Reflectance at Normal Incidence
  0,                                      !- Back Side Visible Reflectance at Normal Incidence
  0,                                      !- Infrared Transmittance at Normal Incidence
  0.9,                                    !- Front Side Infrared Hemispherical Emissivity
  0.9,                                    !- Back Side Infrared Hemispherical Emissivity
  0.0415,                                 !- Conductivity {W/m-K}
  1,                                      !- Dirt Correction Factor for Solar and Visible Transmittance
  No;                                     !- Solar Diffusing

OS:WindowMaterial:Glazing,
  {286aeab2-17d7-4bde-aed1-bf744d642174}, !- Handle
  Theoretical Glass [202],                !- Name
  Spectral,                               !- Optical Data Type
  ,                                       !- Window Glass Spectral Data Set Name
  0.00299999999999999,                    !- Thickness {m}
  0.2325,                                 !- Solar Transmittance at Normal Incidence
  0.7175,                                 !- Front Side Solar Reflectance at Normal Incidence
  0,                                      !- Back Side Solar Reflectance at Normal Incidence
  0.3192,                                 !- Visible Transmittance at Normal Incidence
  0.6308,                                 !- Front Side Visible Reflectance at Normal Incidence
  0,                                      !- Back Side Visible Reflectance at Normal Incidence
  0,                                      !- Infrared Transmittance at Normal Incidence
  0.9,                                    !- Front Side Infrared Hemispherical Emissivity
  0.9,                                    !- Back Side Infrared Hemispherical Emissivity
  0.0192,                                 !- Conductivity {W/m-K}
  1,                                      !- Dirt Correction Factor for Solar and Visible Transmittance
  No;                                     !- Solar Diffusing

OS:WindowMaterial:Glazing,
  {6bc4e937-e50c-426d-94e3-a895088427db}, !- Handle
  Theoretical Glass [207],                !- Name
  Spectral,                               !- Optical Data Type
  ,                                       !- Window Glass Spectral Data Set Name
  0.00299999999999999,                    !- Thickness {m}
  0.3311,                                 !- Solar Transmittance at Normal Incidence
  0.6189,                                 !- Front Side Solar Reflectance at Normal Incidence
  0,                                      !- Back Side Solar Reflectance at Normal Incidence
  0.44,                                   !- Visible Transmittance at Normal Incidence
  0.51,                                   !- Front Side Visible Reflectance at Normal Incidence
  0,                                      !- Back Side Visible Reflectance at Normal Incidence
  0,                                      !- Infrared Transmittance at Normal Incidence
  0.9,                                    !- Front Side Infrared Hemispherical Emissivity
  0.9,                                    !- Back Side Infrared Hemispherical Emissivity
  0.0133,                                 !- Conductivity {W/m-K}
  1,                                      !- Dirt Correction Factor for Solar and Visible Transmittance
  No;                                     !- Solar Diffusing

OS:WindowMaterial:Glazing,
  {6db18778-4a81-415d-8876-9910ed82cb46}, !- Handle
  Theoretical Glass [216],                !- Name
  Spectral,                               !- Optical Data Type
  ,                                       !- Window Glass Spectral Data Set Name
  0.00299999999999999,                    !- Thickness {m}
  0.3801,                                 !- Solar Transmittance at Normal Incidence
  0.5699,                                 !- Front Side Solar Reflectance at Normal Incidence
  0,                                      !- Back Side Solar Reflectance at Normal Incidence
  0.5079,                                 !- Visible Transmittance at Normal Incidence