!-Generator IDFEditor 1.51
!-Option SortedOrder

!-NOTE: All comments with '!-' are ignored by the IDFEditor and are generated automatically.
!-      Use '!' comments if they need to be retained when using the IDFEditor.


!-   ===========  ALL OBJECTS IN CLASS: VERSION ===========

Version,
    9.5;                     !- Version Identifier


!-   ===========  ALL OBJECTS IN CLASS: SIMULATIONCONTROL ===========

SimulationControl,
    No,                      !- Do Zone Sizing Calculation
    No,                      !- Do System Sizing Calculation
    No,                      !- Do Plant Sizing Calculation
    No,                      !- Run Simulation for Sizing Periods
    Yes,                     !- Run Simulation for Weather File Run Periods
    No,                      !- Do HVAC Sizing Simulation for Sizing Periods
    1;                       !- Maximum Number of HVAC Sizing Simulation Passes


!-   ===========  ALL OBJECTS IN CLASS: BUILDING ===========

Building,
    LES,                     !- Name
    ,                        !- North Axis {deg}
    ,                        !- Terrain
    ,                        !- Loads Convergence Tolerance Value {W}
    ,                        !- Temperature Convergence Tolerance Value {deltaC}
    ,                        !- Solar Distribution
    ,                        !- Maximum Number of Warmup Days
    ;                        !- Minimum Number of Warmup Days


!-   ===========  ALL OBJECTS IN CLASS: SHADOWCALCULATION ===========

ShadowCalculation,
    PolygonClipping,         !- Shading Calculation Method
    Periodic,                !- Shading Calculation Update Frequency Method
    20,                      !- Shading Calculation Update Frequency
    15000;                   !- Maximum Figures in Shadow Overlap Calculations


!-   ===========  ALL OBJECTS IN CLASS: SURFACECONVECTIONALGORITHM:INSIDE ===========

SurfaceConvectionAlgorithm:Inside,
    TARP;                    !- Algorithm


!-   ===========  ALL OBJECTS IN CLASS: SURFACECONVECTIONALGORITHM:OUTSIDE ===========

SurfaceConvectionAlgorithm:Outside,
    DOE-2;                   !- Algorithm


!-   ===========  ALL OBJECTS IN CLASS: HEATBALANCEALGORITHM ===========

HeatBalanceAlgorithm,
    ConductionTransferFunction,  !- Algorithm
    200;                     !- Surface Temperature Upper Limit {C}


!-   ===========  ALL OBJECTS IN CLASS: ZONEAIRHEATBALANCEALGORITHM ===========

ZoneAirHeatBalanceAlgorithm,
    ThirdOrderBackwardDifference;  !- Algorithm


!-   ===========  ALL OBJECTS IN CLASS: ZONEAIRCONTAMINANTBALANCE ===========

ZoneAirContaminantBalance,
    No;                      !- Carbon Dioxide Concentration


!-   ===========  ALL OBJECTS IN CLASS: ZONECAPACITANCEMULTIPLIER:RESEARCHSPECIAL ===========

ZoneCapacitanceMultiplier:ResearchSpecial,
    Zone Capacitance Multiplier Research Special,  !- Name
    ,                        !- Zone or ZoneList Name
    ,                        !- Temperature Capacity Multiplier
    ,                        !- Humidity Capacity Multiplier
    ,                        !- Carbon Dioxide Capacity Multiplier
    ;                        !- Generic Contaminant Capacity Multiplier


!-   ===========  ALL OBJECTS IN CLASS: TIMESTEP ===========

Timestep,
    60;                      !- Number of Timesteps per Hour


!-   ===========  ALL OBJECTS IN CLASS: CONVERGENCELIMITS ===========

ConvergenceLimits,
    1;                       !- Minimum System Timestep {minutes}


!-   ===========  ALL OBJECTS IN CLASS: SIZINGPERIOD:DESIGNDAY ===========

SizingPeriod:DesignDay,
    Sizing Period Design Day 1,  !- Name
    2,                       !- Month
    1,                       !- Day of Month
    SummerDesignDay,         !- Day Type
    40,                      !- Maximum Dry-Bulb Temperature {C}
    10,                      !- Daily Dry-Bulb Temperature Range {deltaC}
    DefaultMultipliers,      !- Dry-Bulb Temperature Range Modifier Type
    ,                        !- Dry-Bulb Temperature Range Modifier Day Schedule Name
    WetBulb,                 !- Humidity Condition Type
    23,                      !- Wetbulb or DewPoint at Maximum Dry-Bulb {C}
    ,                        !- Humidity Condition Day Schedule Name
    ,                        !- Humidity Ratio at Maximum Dry-Bulb {kgWater/kgDryAir}
    ,                        !- Enthalpy at Maximum Dry-Bulb {J/kg}
    ,                        !- Daily Wet-Bulb Temperature Range {deltaC}
    87900,                   !- Barometric Pressure {Pa}
    0,                       !- Wind Speed {m/s}
    0,                       !- Wind Direction {deg}
    No,                      !- Rain Indicator
    No,                      !- Snow Indicator
    No,                      !- Daylight Saving Time Indicator
    ASHRAEClearSky,          !- Solar Model Indicator
    ,                        !- Beam Solar Day Schedule Name
    ,                        !- Diffuse Solar Day Schedule Name
    ,                        !- ASHRAE Clear Sky Optical Depth for Beam Irradiance (taub) {dimensionless}
    ,                        !- ASHRAE Clear Sky Optical Depth for Diffuse Irradiance (taud) {dimensionless}
    0;                       !- Sky Clearness


!-   ===========  ALL OBJECTS IN CLASS: RUNPERIOD ===========

RunPeriod,
    Run Period 1,            !- Name
    1,                       !- Begin Month
    25,                      !- Begin Day of Month
    2006,                    !- Begin Year
    2,                       !- End Month
    1,                       !- End Day of Month
    2006,                    !- End Year
    ,                        !- Day of Week for Start Day
    No,                      !- Use Weather File Holidays and Special Days
    No,                      !- Use Weather File Daylight Saving Period
    No,                      !- Apply Weekend Holiday Rule
    Yes,                     !- Use Weather File Rain Indicators
    Yes;                     !- Use Weather File Snow Indicators


!-   ===========  ALL OBJECTS IN CLASS: SCHEDULETYPELIMITS ===========

ScheduleTypeLimits,
    ActivityLevel,           !- Name
    0,                       !- Lower Limit Value
    ,                        !- Upper Limit Value
    Continuous,              !- Numeric Type
    activitylevel;           !- Unit Type

ScheduleTypeLimits,
    ActivityLevel 12,        !- Name
    0,                       !- Lower Limit Value
    ,                        !- Upper Limit Value
    Continuous,              !- Numeric Type
    activitylevel;           !- Unit Type

ScheduleTypeLimits,
    ActivityLevel 13,        !- Name
    0,                       !- Lower Limit Value
    ,                        !- Upper Limit Value
    Continuous,              !- Numeric Type
    activitylevel;           !- Unit Type

ScheduleTypeLimits,
    ActivityLevel 5,         !- Name
    0,                       !- Lower Limit Value
    ,                        !- Upper Limit Value
    Continuous,              !- Numeric Type
    activitylevel;           !- Unit Type

ScheduleTypeLimits,
    Fraction,                !- Name
    0,                       !- Lower Limit Value
    1,                       !- Upper Limit Value
    CONTINUOUS;              !- Numeric Type

ScheduleTypeLimits,
    Fractional,              !- Name
    0,                       !- Lower Limit Value
    1,                       !- Upper Limit Value
    Continuous;              !- Numeric Type

ScheduleTypeLimits,
    Temperature 11,          !- Name
    ,                        !- Lower Limit Value
    ,                        !- Upper Limit Value
    Continuous,              !- Numeric Type
    temperature;             !- Unit Type

ScheduleTypeLimits,
    Temperature 3,           !- Name
    ,                        !- Lower Limit Value
    ,                        !- Upper Limit Value
    Continuous,              !- Numeric Type
    temperature;             !- Unit Type

ScheduleTypeLimits,
    Temperature 36,          !- Name
    ,                        !- Lower Limit Value
    ,                        !- Upper Limit Value
    Continuous,              !- Numeric Type
    temperature;             !- Unit Type

ScheduleTypeLimits,
    Temperature 37,          !- Name
    ,                        !- Lower Limit Value
    ,                        !- Upper Limit Value
    Continuous,              !- Numeric Type
    temperature;             !- Unit Type

ScheduleTypeLimits,
    Temperature 4,           !- Name
    ,                        !- Lower Limit Value
    ,                        !- Upper Limit Value
    Continuous,              !- Numeric Type
    temperature;             !- Unit Type

ScheduleTypeLimits,
    Temperature 5,           !- Name
    ,                        !- Lower Limit Value
    ,                        !- Upper Limit Value
    Continuous,              !- Numeric Type
    temperature;             !- Unit Type

ScheduleTypeLimits,
    Clima_Thermostat,        !- Name
    0,                       !- Lower Limit Value
    4,                       !- Upper Limit Value
    Discrete;                !- Numeric Type

ScheduleTypeLimits,
    Guarda_Thermostat,       !- Name
    0,                       !- Lower Limit Value
    4,                       !- Upper Limit Value
    Discrete;                !- Numeric Type

ScheduleTypeLimits,
    Habitacion_Thermostat,   !- Name
    0,                       !- Lower Limit Value
    4,                       !- Upper Limit Value
    Discrete;                !- Numeric Type

ScheduleTypeLimits,
    Temperature,             !- Name
    0,                       !- Lower Limit Value
    100,                     !- Upper Limit Value
    Continuous,              !- Numeric Type
    Temperature;             !- Unit Type

ScheduleTypeLimits,
    ZoneEqList ScheduleTypeLimts,  !- Name
    0.0,                     !- Lower Limit Value
    1.0,                     !- Upper Limit Value
    Continuous;              !- Numeric Type


!-   ===========  ALL OBJECTS IN CLASS: SCHEDULE:COMPACT ===========

Schedule:Compact,
    TZ-clima,                !- Name
    Clima_Thermostat,        !- Schedule Type Limits Name
    Through: 12/31,          !- Field 1
    For: AllDays,            !- Field 2
    Until: 24:00,            !- Field 3
    4;                       !- Field 4

Schedule:Compact,
    TZ-guarda,               !- Name
    Guarda_Thermostat,       !- Schedule Type Limits Name
    Through: 12/31,          !- Field 1
    For: AllDays,            !- Field 2
    Until: 24:00,            !- Field 3
    4;                       !- Field 4

Schedule:Compact,
    TZ-hab,                  !- Name
    Habitacion_Thermostat,   !- Schedule Type Limits Name
    Through: 12/31,          !- Field 1
    For: AllDays,            !- Field 2
    Until: 24:00,            !- Field 3
    4;                       !- Field 4

Schedule:Compact,
    Cooling_2,               !- Name
    Temperature 4,           !- Schedule Type Limits Name
    Through: 12/31,          !- Field 1
    For: AllDays,            !- Field 2
    Until: 24:00,            !- Field 3
    20.4;                    !- Field 4

Schedule:Compact,
    Heating,                 !- Name
    Temperature 4,           !- Schedule Type Limits Name
    Through: 12/31,          !- Field 1
    For: AllDays,            !- Field 2
    Until: 24:00,            !- Field 3
    20.4;                    !- Field 4

Schedule:Compact,
    Cooling,                 !- Name
    Temperature 4,           !- Schedule Type Limits Name
    Through: 12/31,          !- Field 1
    For: AllDays,            !- Field 2
    Until: 24:00,            !- Field 3
    20.4;                    !- Field 4

Schedule:Compact,
    Heating_2,               !- Name
    Temperature 4,           !- Schedule Type Limits Name
    Through: 12/31,          !- Field 1
    For: AllDays,            !- Field 2
    Until: 24:00,            !- Field 3
    20.4;                    !- Field 4

Schedule:Compact,
    Cooling_3,               !- Name
    Temperature 4,           !- Schedule Type Limits Name
    Through: 12/31,          !- Field 1
    For: AllDays,            !- Field 2
    Until: 24:00,            !- Field 3
    20;                      !- Field 4

Schedule:Compact,
    Heating_3,               !- Name
    Temperature 4,           !- Schedule Type Limits Name
    Through: 12/31,          !- Field 1
    For: AllDays,            !- Field 2
    Until: 24:00,            !- Field 3
    18;                      !- Field 4


!-   ===========  ALL OBJECTS IN CLASS: SCHEDULE:CONSTANT ===========

Schedule:Constant,
    Always On Discrete,      !- Name
    ,                        !- Schedule Type Limits Name
    1;                       !- Hourly Value

Schedule:Constant,
    Always Off Discrete,     !- Name
    ,                        !- Schedule Type Limits Name
    0;                       !- Hourly Value

Schedule:Constant,
    Always On Continuous,    !- Name
    ,                        !- Schedule Type Limits Name
    1;                       !- Hourly Value

Schedule:Constant,
    TZ_clima Equipment CoolingFrac1,  !- Name
    ZoneEqList ScheduleTypeLimts,  !- Schedule Type Limits Name
    1;                       !- Hourly Value

Schedule:Constant,
    TZ_clima Equipment HeatingFrac1,  !- Name
    ZoneEqList ScheduleTypeLimts,  !- Schedule Type Limits Name
    1;                       !- Hourly Value

Schedule:Constant,
    TZ_guarda Equipment CoolingFrac1,  !- Name
    ZoneEqList ScheduleTypeLimts,  !- Schedule Type Limits Name
    1;                       !- Hourly Value

Schedule:Constant,
    TZ_guarda Equipment HeatingFrac1,  !- Name
    ZoneEqList ScheduleTypeLimts,  !- Schedule Type Limits Name
    1;                       !- Hourly Value

Schedule:Constant,
    TZ_habitacion Equipment CoolingFrac1,  !- Name
    ZoneEqList ScheduleTypeLimts,  !- Schedule Type Limits Name
    1;                       !- Hourly Value

Schedule:Constant,
    TZ_habitacion Equipment HeatingFrac1,  !- Name
    ZoneEqList ScheduleTypeLimts,  !- Schedule Type Limits Name
    1;                       !- Hourly Value


!-   ===========  ALL OBJECTS IN CLASS: MATERIAL ===========

Material,
    Aluminio,                !- Name
    Smooth,                  !- Roughness
    0.005,                   !- Thickness {m}
    5,                       !- Conductivity {W/m-K}
    2800,                    !- Density {kg/m3}
    896,                     !- Specific Heat {J/kg-K}
    0.9,                     !- Thermal Absorptance
    0.1,                     !- Solar Absorptance
    0.1;                     !- Visible Absorptance

Material,
    Poliuretano expandido,   !- Name
    Smooth,                  !- Roughness
    0.11,                    !- Thickness {m}
    0.035,                   !- Conductivity {W/m-K}
    25,                      !- Density {kg/m3}
    1400,                    !- Specific Heat {J/kg-K}
    0.9,                     !- Thermal Absorptance
    0.3,                     !- Solar Absorptance
    0.3;                     !- Visible Absorptance

Material,
    Concreto AD,             !- Name
    Smooth,                  !- Roughness
    0.1,                     !- Thickness {m}
    2,                       !- Conductivity {W/m-K}
    2400,                    !- Density {kg/m3}
    1000,                    !- Specific Heat {J/kg-K}
    0.9,                     !- Thermal Absorptance
    0.9,                     !- Solar Absorptance
    0.9;                     !- Visible Absorptance

Material,
    paquime,                 !- Name
    Smooth,                  !- Roughness
    0.15,                    !- Thickness {m}
    0.54,                    !- Conductivity {W/m-K}
    1891.5,                  !- Density {kg/m3}
    550,                     !- Specific Heat {J/kg-K}
    0.9,                     !- Thermal Absorptance
    0.6,                     !- Solar Absorptance
    0.6;                     !- Visible Absorptance

Material,
    triplay,                 !- Name
    Smooth,                  !- Roughness
    0.01,                    !- Thickness {m}
    0.15,                    !- Conductivity {W/m-K}
    700,                     !- Density {kg/m3}
    1420,                    !- Specific Heat {J/kg-K}
    0.9,                     !- Thermal Absorptance
    0.3,                     !- Solar Absorptance
    0.3;                     !- Visible Absorptance

Material,
    lamina,                  !- Name
    Smooth,                  !- Roughness
    0.005,                   !- Thickness {m}
    50,                      !- Conductivity {W/m-K}
    7300,                    !- Density {kg/m3}
    240,                     !- Specific Heat {J/kg-K}
    0.1,                     !- Thermal Absorptance
    0.7,                     !- Solar Absorptance
    0.7;                     !- Visible Absorptance


!-   ===========  ALL OBJECTS IN CLASS: MATERIAL:NOMASS ===========

Material:NoMass,
    CP02 CARPET PAD,         !- Name
    Smooth,                  !- Roughness
    0.1,                     !- Thermal Resistance {m2-K/W}
    0.9,                     !- Thermal Absorptance
    0.8,                     !- Solar Absorptance
    0.8;                     !- Visible Absorptance

Material:NoMass,
    Paredes_jr,              !- Name
    Smooth,                  !- Roughness
    0.001,                   !- Thermal Resistance {m2-K/W}
    0.1,                     !- Thermal Absorptance
    0.7,                     !- Solar Absorptance
    0.7;                     !- Visible Absorptance

Material:NoMass,
    LaminaNM,                !- Name
    Smooth,                  !- Roughness
    0.001,                   !- Thermal Resistance {m2-K/W}
    0.0000001,               !- Thermal Absorptance
    0.7,                     !- Solar Absorptance
    0.7;                     !- Visible Absorptance

Material:NoMass,
    LaminaMopuesto,          !- Name
    Smooth,                  !- Roughness
    0.001,                   !- Thermal Resistance {m2-K/W}
    0.9,                     !- Thermal Absorptance
    0.7,                     !- Solar Absorptance
    0.7;                     !- Visible Absorptance


!-   ===========  ALL OBJECTS IN CLASS: MATERIAL:AIRGAP ===========

Material:AirGap,
    F04 Wall air space resistance,  !- Name
    0.15;                    !- Thermal Resistance {m2-K/W}

Material:AirGap,
    F05 Ceiling air space resistance,  !- Name
    0.18;                    !- Thermal Resistance {m2-K/W}


!-   ===========  ALL OBJECTS IN CLASS: WINDOWMATERIAL:GLAZING ===========

WindowMaterial:Glazing,
    Clear 3mm,               !- Name
    SpectralAverage,         !- Optical Data Type
    ,                        !- Window Glass Spectral Data Set Name
    0.00299999999999999,     !- Thickness {m}
    0.837,                   !- Solar Transmittance at Normal Incidence
    0.075,                   !- Front Side Solar Reflectance at Normal Incidence
    0,                       !- Back Side Solar Reflectance at Normal Incidence
    0.898,                   !- Visible Transmittance at Normal Incidence
    0.081,                   !- Front Side Visible Reflectance at Normal Incidence
    0,                       !- Back Side Visible Reflectance at Normal Incidence
    0,                       !- Infrared Transmittance at Normal Incidence
    0.84,                    !- Front Side Infrared Hemispherical Emissivity
    0.84,                    !- Back Side Infrared Hemispherical Emissivity
    0.9,                     !- Conductivity {W/m-K}
    1,                       !- Dirt Correction Factor for Solar and Visible Transmittance
    No;                      !- Solar Diffusing

WindowMaterial:Glazing,
    Theoretical Glass [167], !- Name
    SpectralAverage,         !- Optical Data Type
    ,                        !- Window Glass Spectral Data Set Name
    0.00299999999999999,     !- Thickness {m}
    0.2374,                  !- Solar Transmittance at Normal Incidence
    0.7126,                  !- Front Side Solar Reflectance at Normal Incidence
    0,                       !- Back Side Solar Reflectance at Normal Incidence
    0.2512,                  !- Visible Transmittance at Normal Incidence
    0.6988,                  !- Front Side Visible Reflectance at Normal Incidence
    0,                       !- Back Side Visible Reflectance at Normal Incidence
    0,                       !- Infrared Transmittance at Normal Incidence
    0.985,                   !- Front Side Infrared Hemispherical Emissivity
    0.985,                   !- Back Side Infrared Hemispherical Emissivity
    2.1073,                  !- Conductivity {W/m-K}
    1,                       !- Dirt Correction Factor for Solar and Visible Transmittance
    No;                      !- Solar Diffusing

WindowMaterial:Glazing,
    Theoretical Glass [197], !- Name
    SpectralAverage,         !- Optical Data Type
    ,                        !- Window Glass Spectral Data Set Name
    0.00299999999999999,     !- Thickness {m}
    0.2349,                  !- Solar Transmittance at Normal Incidence
    0.7151,                  !- Front Side Solar Reflectance at Normal Incidence
    0,                       !- Back Side Solar Reflectance at Normal Incidence
    0.2512,                  !- Visible Transmittance at Normal Incidence
    0.6988,                  !- Front Side Visible Reflectance at Normal Incidence
    0,                       !- Back Side Visible Reflectance at Normal Incidence
    0,                       !- Infrared Transmittance at Normal Incidence
    0.9,                     !- Front Side Infrared Hemispherical Emissivity
    0.9,                     !- Back Side Infrared Hemispherical Emissivity
    0.0415,                  !- Conductivity {W/m-K}
    1,                       !- Dirt Correction Factor for Solar and Visible Transmittance
    No;                      !- Solar Diffusing

WindowMaterial:Glazing,
    Theoretical Glass [202], !- Name
    SpectralAverage,         !- Optical Data Type
    ,                        !- Window Glass Spectral Data Set Name
    0.00299999999999999,     !- Thickness {m}
    0.2325,                  !- Solar Transmittance at Normal Incidence
    0.7175,                  !- Front Side Solar Reflectance at Normal Incidence
    0,                       !- Back Side Solar Reflectance at Normal Incidence
    0.3192,                  !- Visible Transmittance at Normal Incidence
    0.6308,                  !- Front Side Visible Reflectance at Normal Incidence
    0,                       !- Back Side Visible Reflectance at Normal Incidence
    0,                       !- Infrared Transmittance at Normal Incidence
    0.9,                     !- Front Side Infrared Hemispherical Emissivity
    0.9,                     !- Back Side Infrared Hemispherical Emissivity
    0.0192,                  !- Conductivity {W/m-K}
    1,                       !- Dirt Correction Factor for Solar and Visible Transmittance
    No;                      !- Solar Diffusing

WindowMaterial:Glazing,
    Theoretical Glass [207], !- Name
    SpectralAverage,         !- Optical Data Type
    ,                        !- Window Glass Spectral Data Set Name
    0.00299999999999999,     !- Thickness {m}
    0.3311,                  !- Solar Transmittance at Normal Incidence
    0.6189,                  !- Front Side Solar Reflectance at Normal Incidence
    0,                       !- Back Side Solar Reflectance at Normal Incidence
    0.44,                    !- Visible Transmittance at Normal Incidence
    0.51,                    !- Front Side Visible Reflectance at Normal Incidence
    0,                       !- Back Side Visible Reflectance at Normal Incidence
    0,                       !- Infrared Transmittance at Normal Incidence
    0.9,                     !- Front Side Infrared Hemispherical Emissivity
    0.9,                     !- Back Side Infrared Hemispherical Emissivity
    0.0133,                  !- Conductivity {W/m-K}
    1,                       !- Dirt Correction Factor for Solar and Visible Transmittance
    No;                      !- Solar Diffusing

WindowMaterial:Glazing,
    Theoretical Glass [216], !- Name
    SpectralAverage,         !- Optical Data Type
    ,                        !- Window Glass Spectral Data Set Name
    0.00299999999999999,     !- Thickness {m}
    0.3801,                  !- Solar Transmittance at Normal Incidence
    0.5699,                  !- Front Side Solar Reflectance at Normal Incidence
    0,                       !- Back Side Solar Reflectance at Normal Incidence
    0.5079,                  !- Visible Transmittance at Normal Incidence
    0.4421,                  !- Front Side Visible Reflectance at Normal Incidence
    0,                       !- Back Side Visible Reflectance at Normal Incidence
    0,                       !- Infrared Transmittance at Normal Incidence
    0.9,                     !- Front Side Infrared Hemispherical Emissivity
    0.9,                     !- Back Side Infrared Hemispherical Emissivity
    0.0133,                  !- Conductivity {W/m-K}
    1,                       !- Dirt Correction Factor for Solar and Visible Transmittance
    No;                      !- Solar Diffusing

WindowMaterial:Glazing,
    Theoretical Glass [221], !- Name
    SpectralAverage,         !- Optical Data Type
    ,                        !- Window Glass Spectral Data Set Name
    0.00299999999999999,     !- Thickness {m}
    0.4296,                  !- Solar Transmittance at Normal Incidence
    0.5204,                  !- Front Side Solar Reflectance at Normal Incidence
    0,                       !- Back Side Solar Reflectance at Normal Incidence
    0.4503,                  !- Visible Transmittance at Normal Incidence
    0.4997,                  !- Front Side Visible Reflectance at Normal Incidence
    0,                       !- Back Side Visible Reflectance at Normal Incidence
    0,                       !- Infrared Transmittance at Normal Incidence
    0.9,                     !- Front Side Infrared Hemispherical Emissivity
    0.9,                     !- Back Side Infrared Hemispherical Emissivity
    0.0089,                  !- Conductivity {W/m-K}
    1,                       !- Dirt Correction Factor for Solar and Visible Transmittance
    No;                      !- Solar Diffusing


!-   ===========  ALL OBJECTS IN CLASS: WINDOWMATERIAL:BLIND ===========

WindowMaterial:Blind,
    Window Material Blind 1, !- Name
    Horizontal,              !- Slat Orientation
    0.025,                   !- Slat Width {m}
    0.01875,                 !- Slat Separation {m}
    0.001,                   !- Slat Thickness {m}
    45,                      !- Slat Angle {deg}
    221,                     !- Slat Conductivity {W/m-K}
    0,                       !- Slat Beam Solar Transmittance
    0.5,                     !- Front Side Slat Beam Solar Reflectance
    0.5,                     !- Back Side Slat Beam Solar Reflectance
    0,                       !- Slat Diffuse Solar Transmittance
    0.5,                     !- Front Side Slat Diffuse Solar Reflectance
    0.5,                     !- Back Side Slat Diffuse Solar Reflectance
    0,                       !- Slat Beam Visible Transmittance
    0.5,                     !- Front Side Slat Beam Visible Reflectance
    0.5,                     !- Back Side Slat Beam Visible Reflectance
    0,                       !- Slat Diffuse Visible Transmittance
    0.5,                     !- Front Side Slat Diffuse Visible Reflectance
    0.5,                     !- Back Side Slat Diffuse Visible Reflectance
    0,                       !- Slat Infrared Hemispherical Transmittance
    0.9,                     !- Front Side Slat Infrared Hemispherical Emissivity
    0.9,                     !- Back Side Slat Infrared Hemispherical Emissivity
    0.05,                    !- Blind to Glass Distance {m}
    0.5,                     !- Blind Top Opening Multiplier
    0.5,                     !- Blind Bottom Opening Multiplier
    0.5,                     !- Blind Left Side Opening Multiplier
    0.5,                     !- Blind Right Side Opening Multiplier
    0,                       !- Minimum Slat Angle {deg}
    180;                     !- Maximum Slat Angle {deg}


!-   ===========  ALL OBJECTS IN CLASS: CONSTRUCTION ===========

Construction,
    Paredes_gen,             !- Name
    Aluminio;                !- Outside Layer

Construction,
    Paredes_guarda,          !- Name
    Aluminio,                !- Outside Layer
    Poliuretano expandido,   !- Layer 2
    Aluminio;                !- Layer 3

Construction,
    SC_jr,                   !- Name
    Poliuretano expandido;   !- Outside Layer

Construction,
    SC2_jr,                  !- Name
    Concreto AD;             !- Outside Layer

Construction,
    SC_paquime,              !- Name
    paquime;                 !- Outside Layer

Construction,
    SC_NM,                   !- Name
    Paredes_jr;              !- Outside Layer

Construction,
    EPS-trip,                !- Name
    triplay,                 !- Outside Layer
    Poliuretano expandido,   !- Layer 2
    triplay;                 !- Layer 3

Construction,
    SC-Lamina,               !- Name
    lamina;                  !- Outside Layer

Construction,
    LaminaNOMASS,            !- Name
    LaminaNM;                !- Outside Layer

Construction,
    LaminaMopuesto,          !- Name
    LaminaMopuesto;          !- Outside Layer


!-   ===========  ALL OBJECTS IN CLASS: GLOBALGEOMETRYRULES ===========

GlobalGeometryRules,
    UpperLeftCorner,         !- Starting Vertex Position
    Counterclockwise,        !- Vertex Entry Direction
    Relative,                !- Coordinate System
    Relative,                !- Daylighting Reference Point Coordinate System